Circuit: * Z:\home\niels\Desktop\Uni_Notes\Tri 2\ECEN405\Class-D_Amplifier\spice_sim\SPWM_Generator\SPWM_Generator.asc

Direct Newton iteration for .op point succeeded.

Date: Sat Jul 31 17:26:42 2021
Total elapsed time: 0.381 seconds.

tnom = 27
temp = 27
method = modified trap
totiter = 41973
traniter = 41964
tranpoints = 15094
accept = 10955
rejected = 4139
matrix size = 18
fillins = 10
solver = Normal
Matrix Compiler1: 1.13 KB object code size  0.4/0.3/[0.2]
Matrix Compiler2: 1.74 KB object code size  0.3/0.4/[0.2]

