Circuit: * Z:\home\niels\Desktop\Uni_Notes\Tri 2\ECEN405\Class-D_Amplifier\spice_sim\SPWM_Generator\SPWM_Generator.asc

u1:c_cc3: both pins shorted together -- ignoring.
u2:c_cc3: both pins shorted together -- ignoring.
Direct Newton iteration for .op point succeeded.
Heightened Def Con from 1.58712e-005 to 1.58714e-005
Heightened Def Con from 1.59222e-005 to 1.59223e-005
Heightened Def Con from 2.79885e-005 to 2.79915e-005
Heightened Def Con from 2.80657e-005 to 2.80657e-005
Heightened Def Con from 2.80657e-005 to 2.80657e-005
Heightened Def Con from 2.80657e-005 to 2.80657e-005
Heightened Def Con from 2.80657e-005 to 2.80657e-005
Heightened Def Con from 2.80657e-005 to 2.80657e-005
Heightened Def Con from 2.80657e-005 to 2.80657e-005
Heightened Def Con from 2.80657e-005 to 2.80657e-005
Heightened Def Con from 2.80657e-005 to 2.80657e-005
Heightened Def Con from 2.80657e-005 to 2.80657e-005
Heightened Def Con from 2.80657e-005 to 2.80657e-005
Heightened Def Con from 2.80657e-005 to 2.80657e-005
Heightened Def Con from 2.80657e-005 to 2.80657e-005
Heightened Def Con from 4.51659e-005 ++++++++++++++++++++++to 4.51659e-005
Heightened Def Con from 4.51659e-005 to 4.51659e-005
Heightened Def Con from 4.51659e-005 to 4.51673e-005
Heightened Def Con from 4.52463e-005 to 4.52493e-005
Heightened Def Con from 5.8888e-005 +to 5.8888e-005
Heightened Def Con from 5.8888e-005 to 5.8888e-005
Heightened Def Con from 5.8888e-005 to 5.8888e-005
Heightened Def Con from 5.8888e-005 to 5.8888e-005
Heightened Def Con from 5.8888e-005 to 5.8888e-005
Heightened Def Con from 5.8888e-005 to 5.8888e-005
Heightened Def Con from 5.8888e-005 to 5.8891e-005
Heightened Def Con from 7.72863e-005 to 7.72863e-005
Heightened Def Con from 7.72863e-005 to 7.72893e-005
Heightened Def Con from 7.73666e-005 +to 7.73666e-005
Heightened Def Con from 8.97999e-005 to 8.97999e-005
Heightened Def Con from 8.98772e-005 to 8.98802e-005
Heightened Def Con from 0.000109388 ++++++++++++++++++++++++to 0.000109388
Heightened Def Con from 0.000109388 ++++++++++++++to 0.000109389
Heightened Def Con from 0.000109389 +++++to 0.000109391
Heightened Def Con from 0.000109468 +++++++++++++++++++++++to 0.000109468
Heightened Def Con from 0.000109468 +++++to 0.000109468
Heightened Def Con from 0.000109468 to 0.000109468
Heightened Def Con from 0.000120803 to 0.000120806
Heightened Def Con from 0.000141473 to 0.000141473
Heightened Def Con from 0.000141553 +++++++++++++++++++++++to 0.000141553
Heightened Def Con from 0.000141553 +++++++++++++++to 0.000141555
Heightened Def Con from 0.000141555 +++++++++++to 0.000141555
Heightened Def Con from 0.000141555 +++++++++to 0.000141555
Heightened Def Con from 0.000141555 to 0.000141555
Heightened Def Con from 0.000141555 to 0.000141559
Heightened Def Con from 0.000151675 to 0.000151675
Heightened Def Con from 0.000151675 to 0.000151675
Heightened Def Con from 0.000151675 to 0.000151676
Heightened Def Con from 0.000151752 to 0.000151752
Heightened Def Con from 0.000151752 to 0.000151754
Heightened Def Con from 0.000173529 to 0.00017353
Heightened Def Con from 0.000173609 ++++++++++++++++++++++++to 0.000173609
Heightened Def Con from 0.000173609 ++++++++++++++to 0.000173609
Heightened Def Con from 0.000173609 ++++++++++++++to 0.000173614
Heightened Def Con from 0.000173614 ++++++to 0.000173614
Heightened Def Con from 0.000173614 to 0.000173616
Heightened Def Con from 0.000173616 to 0.000173619
Heightened Def Con from 0.000182653 to 0.000182653
Heightened Def Con from 0.000182731 +to 0.000182731
Heightened Def Con from 0.000182731 to 0.000182732
Heightened Def Con from 0.00020555 ++++++++++++++++++++++++to 0.00020555
Heightened Def Con from 0.00020555 ++++++++++++++to 0.000205551
Heightened Def Con from 0.000205551 ++++to 0.000205553
Heightened Def Con from 0.000213657 +++++++++++++++++++++++to 0.000213657
Heightened Def Con from 0.000213657 +++++++++to 0.000213659
Heightened Def Con from 0.000213659 to 0.000213663
Heightened Def Con from 0.000213735 +++++++++++++++++++++++to 0.000213735
Heightened Def Con from 0.000213735 to 0.000213735
Heightened Def Con from 0.000213735 to 0.000213735
Heightened Def Con from 0.000237533 ++++++++++++++++++++++++to 0.000237533
Heightened Def Con from 0.000237533 ++++++++++++++to 0.000237535
Heightened Def Con from 0.000237535 ++++to 0.000237536
Heightened Def Con from 0.000244702 to 0.000244703
Heightened Def Con from 0.000244779 to 0.00024478
Heightened Def Con from 0.000269554 ++++++++++++++++++++++++to 0.000269554
Heightened Def Con from 0.000269554 +++++++++++++to 0.000269554
Heightened Def Con from 0.000269554 +++++++++to 0.000269555
Heightened Def Con from 0.000275786 to 0.000275787
Heightened Def Con from 0.000275863 to 0.000275865
Heightened Def Con from 0.000301367 +to 0.000301368
Heightened Def Con from 0.000301446 ++++++++++++++++++++++++to 0.000301446
Heightened Def Con from 0.000301446 +++++++++++++to 0.000301446
Heightened Def Con from 0.000301446 +++++++++to 0.000301447
Heightened Def Con from 0.000301447 to 0.00030145
Heightened Def Con from 0.000306916 to 0.000306916
Heightened Def Con from 0.000306916 to 0.000306917
Heightened Def Con from 0.000306994 +++++++++++++++++++++++to 0.000306994
Heightened Def Con from 0.000306994 to 0.000306994
Heightened Def Con from 0.000306994 to 0.000306994
Heightened Def Con from 0.000333209 ++++++++++++++++++++++++to 0.000333209
Heightened Def Con from 0.000333209 ++++++++++++++to 0.000333211
Heightened Def Con from 0.000333211 +++to 0.000333212
Heightened Def Con from 0.000338094 to 0.000338094
Heightened Def Con from 0.000338094 to 0.000338094
Heightened Def Con from 0.000338172 to 0.000338172
Heightened Def Con from 0.000338172 to 0.000338172
Heightened Def Con from 0.000338172 to 0.000338173
Heightened Def Con from 0.000364995 +++++++++++++++++++++++to 0.000364995
Heightened Def Con from 0.000364995 +++++++++++++to 0.000364996
Heightened Def Con from 0.000364996 to 0.000364996
Heightened Def Con from 0.000364996 to 0.000364996
Heightened Def Con from 0.000369324 to 0.000369325
Heightened Def Con from 0.000369403 to 0.000369404
Heightened Def Con from 0.00039672 ++++++++++++++++++++++++to 0.00039672
Heightened Def Con from 0.00039672 ++++++++++++++to 0.000396722
Heightened Def Con from 0.000396722 +++to 0.000396723
Heightened Def Con from 0.000396799 ++++++++++++++++++++++++to 0.000396799
Heightened Def Con from 0.000396799 ++++++++++++++to 0.000396801
Heightened Def Con from 0.000396801 ++++++++++to 0.000396801
Heightened Def Con from 0.000396801 +++++++to 0.000396801
Heightened Def Con from 0.000396801 to 0.000396801
Heightened Def Con from 0.000400604 +++++++++++++++++++++++to 0.000400604
Heightened Def Con from 0.000400604 +++++++++to 0.000400605
Heightened Def Con from 0.000400605 to 0.000400609
Heightened Def Con from 0.000400682 to 0.000400683
Heightened Def Con from 0.000428388 to 0.000428388
Heightened Def Con from 0.000428388 to 0.000428391
Heightened Def Con from 0.000428467 to 0.000428468
Heightened Def Con from 0.000431945 to 0.000431945
Heightened Def Con from 0.000459999 to 0.00046
Heightened Def Con from 0.000460078 ++++++++++++++++++++++++to 0.000460078
Heightened Def Con from 0.000460078 ++++++++++++++to 0.000460078
Heightened Def Con from 0.000460078 to 0.00046008
Heightened Def Con from 0.000463425 to 0.000463425
Heightened Def Con from 0.000463425 to 0.000463425
Heightened Def Con from 0.000477479 to 0.000477483
Heightened Def Con from 0.000491546 +to 0.000491546
Heightened Def Con from 0.000491625 ++++++++++++++++++++++++to 0.000491625
Heightened Def Con from 0.000491625 ++++++++++++++to 0.000491626
Heightened Def Con from 0.000491626 ++++++++++to 0.000491626
Heightened Def Con from 0.000491626 +++++++to 0.000491626
Heightened Def Con from 0.000491626 to 0.000491626
Heightened Def Con from 0.000491626 to 0.000491628
Heightened Def Con from 0.000493233 to 0.000493236
Heightened Def Con from 0.000494804 to 0.000494805
Heightened Def Con from 0.000494883 ++++++++++++++++++++++++to 0.000494883
Heightened Def Con from 0.000494883 to 0.000494883
Heightened Def Con from 0.000494883 to 0.000494887
Heightened Def Con from 0.000508946 to 0.000508949
Heightened Def Con from 0.000523029 to 0.000523029
Heightened Def Con from 0.000523029 to 0.00052303
Heightened Def Con from 0.000523107 +++++++++++++++++++++++to 0.000523107
Heightened Def Con from 0.000523107 +++++++++++++to 0.000523107
Heightened Def Con from 0.000523107 to 0.000523108
Heightened Def Con from 0.000526322 to 0.000526322
Heightened Def Con from 0.000526322 to 0.000526322
Heightened Def Con from 0.000526322 to 0.000526322
Heightened Def Con from 0.000526401 ++++++++++++++++++++++++to 0.000526401
Heightened Def Con from 0.000526401 to 0.000526401
Heightened Def Con from 0.000554452 ++++++++++++++++++++++++to 0.000554452
Heightened Def Con from 0.000554452 +++++++++++++to 0.000554454
Heightened Def Con from 0.000554454 to 0.000554454
Heightened Def Con from 0.000554454 to 0.000554454
Heightened Def Con from 0.000557903 to 0.000557903
Heightened Def Con from 0.000557903 to 0.000557904
Heightened Def Con from 0.000557982 to 0.000557985
Heightened Def Con from 0.000585818 ++++++++++++++++++++++++to 0.000585818
Heightened Def Con from 0.000585818 ++++++++++++++to 0.000585819
Heightened Def Con from 0.000585819 ++++to 0.000585821
Heightened Def Con from 0.000585896 to 0.000585896
Heightened Def Con from 0.000585896 +++++++++++++++++++++++to 0.000585896
Heightened Def Con from 0.000585896 +++++++++++++to 0.000585896
Heightened Def Con from 0.000585896 +++++++++++++to 0.000585896
Heightened Def Con from 0.000585896 ++++++++++to 0.000585896
Heightened Def Con from 0.000585896 ++++++to 0.000585896
Heightened Def Con from 0.000585896 ++to 0.0005859
Heightened Def Con from 0.000589546 to 0.000589547
Heightened Def Con from 0.000589625 to 0.000589625
Heightened Def Con from 0.000589625 to 0.000589626
Heightened Def Con from 0.000621248 to 0.000621248
Heightened Def Con from 0.000621327 to 0.000621327
Heightened Def Con from 0.000621327 to 0.000621327
Heightened Def Con from 0.000621327 to 0.000621328
Heightened Def Con from 0.000648377 to 0.000648377
Heightened Def Con from 0.000648377 to 0.000648378
Heightened Def Con from 0.000648455 ++++++++++++++++++++++++to 0.000648455
Heightened Def Con from 0.000648455 +++++++++++++to 0.000648455
Heightened Def Con from 0.000648455 +++++++++to 0.000648456
Heightened Def Con from 0.000653008 to 0.000653008
Heightened Def Con from 0.000653008 to 0.000653008
Heightened Def Con from 0.000653008 to 0.000653008
Heightened Def Con from 0.000653087 to 0.000653087
Heightened Def Con from 0.000653087 +to 0.000653087
Heightened Def Con from 0.000666474 to 0.000666478
Heightened Def Con from 0.000679574 to 0.000679574
Heightened Def Con from 0.000679574 to 0.000679574
Heightened Def Con from 0.000684824 to 0.000684825
Heightened Def Con from 0.000684904 ++++++++++++++++++++++++to 0.000684904
Heightened Def Con from 0.000684904 to 0.000684904
Heightened Def Con from 0.000684904 to 0.000684908
Heightened Def Con from 0.000710725 to 0.000710726
Heightened Def Con from 0.000710803 ++++++++++++++++++++++++to 0.000710803
Heightened Def Con from 0.000710803 +++++++++++++to 0.000710803
Heightened Def Con from 0.000710803 +++++++++to 0.000710804
Heightened Def Con from 0.000716696 to 0.000716696
Heightened Def Con from 0.000716696 to 0.000716696
Heightened Def Con from 0.000716776 to 0.000716777
Heightened Def Con from 0.000741827 to 0.000741827
Heightened Def Con from 0.000741827 to 0.000741828
Heightened Def Con from 0.000741905 +to 0.000741905
Heightened Def Con from 0.000748612 to 0.000748612
Heightened Def Con from 0.000748612 to 0.000748615
Heightened Def Con from 0.000748692 to 0.000748692
Heightened Def Con from 0.000772885 +++++++++++++++++++++++to 0.000772885
Heightened Def Con from 0.000772885 +++++++++++++to 0.000772887
Heightened Def Con from 0.000772887 to 0.000772887
Heightened Def Con from 0.000772963 to 0.000772964
Heightened Def Con from 0.000780575 +to 0.000780575
Heightened Def Con from 0.000780655 +++++++++++++++++++++++to 0.000780655
Heightened Def Con from 0.000780655 to 0.000780655
Heightened Def Con from 0.000780655 to 0.000780659
Heightened Def Con from 0.000803906 to 0.000803906
Heightened Def Con from 0.000803983 to 0.000803983
Heightened Def Con from 0.00081258 to 0.00081258
Heightened Def Con from 0.00081258 to 0.00081258
Heightened Def Con from 0.00081266 to 0.000812663
Heightened Def Con from 0.000834893 to 0.000834893
Heightened Def Con from 0.00083497 to 0.000834972
Heightened Def Con from 0.00084462 to 0.000844621
Heightened Def Con from 0.0008447 +to 0.0008447
Heightened Def Con from 0.0008447 to 0.000844703
Heightened Def Con from 0.000865852 to 0.000865852
Heightened Def Con from 0.000865852 to 0.000865852
Heightened Def Con from 0.000865852 to 0.000865852
Heightened Def Con from 0.000865852 to 0.000865852
Heightened Def Con from 0.000865852 to 0.000865852
Heightened Def Con from 0.00087669 to 0.00087669
Heightened Def Con from 0.00087669 to 0.00087669
Heightened Def Con from 0.00087669 to 0.000876691
Heightened Def Con from 0.00087677 ++++++++++++++++++++++++to 0.00087677
Heightened Def Con from 0.00087677 to 0.00087677
Heightened Def Con from 0.00087677 to 0.00087677
Heightened Def Con from 0.00087677 to 0.00087677
Heightened Def Con from 0.00087677 to 0.00087677
Heightened Def Con from 0.00087677 to 0.00087677
Heightened Def Con from 0.00087677 to 0.00087677
Heightened Def Con from 0.000896786 to 0.000896786
Heightened Def Con from 0.000896786 +++++++++++++++++++++++to 0.000896786
Heightened Def Con from 0.000896786 ++++++++++++to 0.000896787
Heightened Def Con from 0.000896787 to 0.000896791
Heightened Def Con from 0.000896863 ++++++++++++++++++++++++to 0.000896863
Heightened Def Con from 0.000896863 ++++++++++++++to 0.000896863
Heightened Def Con from 0.000896863 ++++++++++++++to 0.000896868
Heightened Def Con from 0.000896868 ++++++to 0.000896868
Heightened Def Con from 0.000896868 to 0.000896872
Heightened Def Con from 0.000908785 to 0.000908786
Heightened Def Con from 0.000908865 to 0.000908866
Heightened Def Con from 0.000908866 to 0.000908867
Heightened Def Con from 0.000927705 to 0.000927705
Heightened Def Con from 0.000927705 to 0.000927706
Heightened Def Con from 0.000927782 ++++++++++++++++++++++++to 0.000927782
Heightened Def Con from 0.000927782 ++++++++++++++to 0.000927782
Heightened Def Con from 0.000927782 ++++++++++++++to 0.000927787
Heightened Def Con from 0.000927787 ++++++to 0.000927787
Heightened Def Con from 0.000927787 to 0.000927791
Heightened Def Con from 0.0009409 +to 0.0009409
Heightened Def Con from 0.00094098 to 0.00094098
Heightened Def Con from 0.00094098 to 0.000940981
Heightened Def Con from 0.00095861 to 0.00095861
Heightened Def Con from 0.00095861 to 0.000958611
Heightened Def Con from 0.000958687 to 0.000958687
Heightened Def Con from 0.000958687 to 0.000958688
Heightened Def Con from 0.000973024 +++++++++++++++++++++++to 0.000973024
Heightened Def Con from 0.000973024 +++++++++to 0.000973026
Heightened Def Con from 0.000973026 to 0.000973026
Heightened Def Con from 0.000989505 to 0.000989506
Heightened Def Con from 0.000989582 +++++++++++++++++++++++to 0.000989582
Heightened Def Con from 0.000989582 ++++to 0.000989582
Heightened Def Con from 0.000989582 to 0.000989582
Heightened Def Con from 0.000989582 to 0.000989582
Heightened Def Con from 0.00100515 ++++++++++++++++++++++++to 0.00100515
Heightened Def Con from 0.00100515 +++++++++to 0.00100516
Heightened Def Con from 0.00100516 to 0.00100516
Heightened Def Con from 0.00100516 to 0.00100516
Heightened Def Con from 0.00103728 +++++++++++++++++++++++to 0.00103728
Heightened Def Con from 0.00103728 +++++++++to 0.00103729
Heightened Def Con from 0.00103729 to 0.00103729
Heightened Def Con from 0.00103736 ++++++++++++++++++++++++to 0.00103736
Heightened Def Con from 0.00103736 to 0.00103736
Heightened Def Con from 0.00103736 to 0.00103736
Heightened Def Con from 0.00103736 to 0.00103736
Heightened Def Con from 0.00103736 ++to 0.00103736
Heightened Def Con from 0.00103736 to 0.00103737
Heightened Def Con from 0.0010694 to 0.0010694
Heightened Def Con from 0.0010694 to 0.00106941
Heightened Def Con from 0.00106948 ++++++++++++++++++++++++to 0.00106948
Heightened Def Con from 0.00106948 to 0.00106948
Heightened Def Con from 0.00106948 to 0.00106949
Heightened Def Con from 0.0010822 +++++++++++++++++++++++to 0.0010822
Heightened Def Con from 0.0010822 +++++++++++++to 0.0010822
Heightened Def Con from 0.0010822 to 0.0010822
Heightened Def Con from 0.00108228 to 0.00108228
Heightened Def Con from 0.00110151 +++++++++++++++++++++++to 0.00110151
Heightened Def Con from 0.00110151 +++++++++to 0.00110152
Heightened Def Con from 0.00110152 to 0.00110152
Heightened Def Con from 0.00110159 to 0.00110159
Heightened Def Con from 0.00110763 to 0.00110763
Heightened Def Con from 0.00111312 +++++++++++++++++++++++to 0.00111313
Heightened Def Con from 0.00111313 ++++++++++++++to 0.00111313
Heightened Def Con from 0.00111313 ++++++to 0.00111313
Heightened Def Con from 0.0011132 to 0.0011132
Heightened Def Con from 0.0011132 to 0.0011132
Heightened Def Con from 0.0011132 to 0.0011132
Heightened Def Con from 0.0011336 +++++++++++++++++++++++to 0.0011336
Heightened Def Con from 0.0011336 +++++++++to 0.0011336
Heightened Def Con from 0.0011336 to 0.0011336
Heightened Def Con from 0.00113368 ++++++++++++++++++++++++to 0.00113368
Heightened Def Con from 0.00113368 to 0.00113368
Heightened Def Con from 0.00113913 to 0.00113914
Heightened Def Con from 0.00116574 to 0.00116575
Heightened Def Con from 0.00117503 ++++++++++++++++++++++++to 0.00117503
Heightened Def Con from 0.00117503 to 0.00117503
Heightened Def Con from 0.00117503 to 0.00117503
Heightened Def Con from 0.00117503 ++++++++++++++++++++++++to 0.00117503
Heightened Def Con from 0.00117503 to 0.00117503
Heightened Def Con from 0.00117503 to 0.00117504
Heightened Def Con from 0.00117511 to 0.00117511
Heightened Def Con from 0.00119777 +to 0.00119777
Heightened Def Con from 0.00120611 ++++++++++++++++++++++++to 0.00120611
Heightened Def Con from 0.00120611 +to 0.00120611
Heightened Def Con from 0.00120611 +++++++++++++++++++++++to 0.00120611
Heightened Def Con from 0.00120611 +++++++++++++++to 0.00120611
Heightened Def Con from 0.00120611 +++++++++++to 0.00120611
Heightened Def Con from 0.00120611 +++++++++to 0.00120611
Heightened Def Con from 0.00120611 ++++to 0.00120611
Heightened Def Con from 0.00120611 to 0.00120611
Heightened Def Con from 0.00122977 to 0.00122977
Heightened Def Con from 0.00123706 ++++++++++++++++++++++++to 0.00123706
Heightened Def Con from 0.00123706 to 0.00123706
Heightened Def Con from 0.00123706 to 0.00123706
Heightened Def Con from 0.00123706 to 0.00123706
Heightened Def Con from 0.00123706 to 0.00123706
Heightened Def Con from 0.00123714 ++++++++++++++++++++++++to 0.00123714
Heightened Def Con from 0.00123714 ++++++++++++++to 0.00123714
Heightened Def Con from 0.00123714 ++++++++++to 0.00123714
Heightened Def Con from 0.00123714 ++to 0.00123714
Heightened Def Con from 0.00123714 to 0.00123714
Heightened Def Con from 0.00126163 to 0.00126163
Heightened Def Con from 0.00126171 ++++++++++++++++++++++to 0.00126171
Heightened Def Con from 0.00126171 +++++++++++++to 0.00126171
Heightened Def Con from 0.00126171 to 0.00126171
Heightened Def Con from 0.00126814 to 0.00126814
Heightened Def Con from 0.00126821 +to 0.00126821
Heightened Def Con from 0.00128089 to 0.00128089
Heightened Def Con from 0.00129354 to 0.00129354
Heightened Def Con from 0.00129354 to 0.00129354
Heightened Def Con from 0.00129354 to 0.00129354
Heightened Def Con from 0.00129362 +to 0.00129362
Heightened Def Con from 0.00129925 to 0.00129925
Heightened Def Con from 0.00129933 to 0.00129933
Heightened Def Con from 0.00129933 to 0.00129933
Heightened Def Con from 0.00132547 ++++++++++++++++++++++++to 0.00132547
Heightened Def Con from 0.00132547 to 0.00132547
Heightened Def Con from 0.00133042 to 0.00133042
Heightened Def Con from 0.0013305 ++++++++++++++++++++++++to 0.0013305
Heightened Def Con from 0.0013305 +to 0.0013305
Heightened Def Con from 0.0013305 to 0.0013305
Heightened Def Con from 0.0013305 to 0.0013305
Heightened Def Con from 0.0013305 ++++++++++++++++++++++++to 0.0013305
Heightened Def Con from 0.0013305 to 0.0013305
Heightened Def Con from 0.0013305 to 0.0013305
Heightened Def Con from 0.00135718 to 0.00135718
Heightened Def Con from 0.00135726 to 0.00135726
Heightened Def Con from 0.00135726 to 0.00135726
Heightened Def Con from 0.00135948 to 0.00135949
Heightened Def Con from 0.00136163 to 0.00136163
Heightened Def Con from 0.00136163 to 0.00136163
Heightened Def Con from 0.00136163 to 0.00136163
Heightened Def Con from 0.00138892 +++++++++++++++++++++++to 0.00138892
Heightened Def Con from 0.00138892 ++++++++++++++to 0.00138893
Heightened Def Con from 0.00138893 ++++to 0.00138893
Heightened Def Con from 0.001389 to 0.001389
Heightened Def Con from 0.00139113 to 0.00139113
Heightened Def Con from 0.0013929 +to 0.0013929
Heightened Def Con from 0.0013929 +to 0.0013929
Heightened Def Con from 0.0013929 to 0.0013929
Heightened Def Con from 0.00142061 to 0.00142061
Heightened Def Con from 0.00142069 to 0.00142069
Heightened Def Con from 0.00142422 to 0.00142422
Heightened Def Con from 0.0014243 to 0.0014243
Heightened Def Con from 0.00145223 +to 0.00145223
Heightened Def Con from 0.00145223 to 0.00145224
Heightened Def Con from 0.00145231 to 0.00145231
Heightened Def Con from 0.00145561 +++++++++++++++++++++++to 0.00145561
Heightened Def Con from 0.00145561 +++++++++to 0.00145561
Heightened Def Con from 0.00145561 to 0.00145561
Heightened Def Con from 0.00145569 ++++++++++++++++++++++++to 0.00145569
Heightened Def Con from 0.00145569 ++++++++++++++to 0.00145569
Heightened Def Con from 0.00145569 +++++++++to 0.00145569
Heightened Def Con from 0.00145569 to 0.00145569
Heightened Def Con from 0.00148379 +++++++++++++++++++++++to 0.00148379
Heightened Def Con from 0.00148379 ++++++++++++++to 0.0014838
Heightened Def Con from 0.0014838 ++++to 0.0014838
Heightened Def Con from 0.0015153 ++++++++++++++++++++++++to 0.0015153
Heightened Def Con from 0.0015153 to 0.0015153
Heightened Def Con from 0.00151538 to 0.00151538
Heightened Def Con from 0.00151856 +++++++++++++++++++++++to 0.00151856
Heightened Def Con from 0.00151856 +++++++++to 0.00151856
Heightened Def Con from 0.00151856 to 0.00151856
Heightened Def Con from 0.00151864 to 0.00151864
Heightened Def Con from 0.00154682 ++++++++++++++++++++++++to 0.00154682
Heightened Def Con from 0.00154682 to 0.00154682
Heightened Def Con from 0.00155013 +++++++++++++++++++++++to 0.00155013
Heightened Def Con from 0.00155013 +++++++++to 0.00155013
Heightened Def Con from 0.00155013 to 0.00155013
Heightened Def Con from 0.00157812 to 0.00157812
Heightened Def Con from 0.00157819 to 0.00157819
Heightened Def Con from 0.00157819 to 0.00157819
Heightened Def Con from 0.00158175 to 0.00158175
Heightened Def Con from 0.00158183 to 0.00158183
Heightened Def Con from 0.00158183 to 0.00158183
Heightened Def Con from 0.00160944 to 0.00160944
Heightened Def Con from 0.00160952 +to 0.00160952
Heightened Def Con from 0.00161344 +++++++++++++++++++++++to 0.00161344
Heightened Def Con from 0.00161344 +++++++++to 0.00161344
Heightened Def Con from 0.00161344 to 0.00161345
Heightened Def Con from 0.00164519 +++++++++++++++++++++++to 0.00164519
Heightened Def Con from 0.00164519 ++++++++++++++to 0.00164519
Heightened Def Con from 0.00164519 ++++++to 0.00164519
Heightened Def Con from 0.00164527 to 0.00164527
Heightened Def Con from 0.00164527 to 0.00164527
Heightened Def Con from 0.00167191 to 0.00167192
Heightened Def Con from 0.00167199 +to 0.00167199
Heightened Def Con from 0.00167699 +++++++++++++++++++++++to 0.00167699
Heightened Def Con from 0.00167699 +++++++++to 0.00167699
Heightened Def Con from 0.00167699 to 0.00167699
Heightened Def Con from 0.00167707 to 0.00167707
Heightened Def Con from 0.00170307 to 0.00170307
Heightened Def Con from 0.00170884 to 0.00170884
Heightened Def Con from 0.00170884 to 0.00170884
Heightened Def Con from 0.00170884 ++++++++++++++++++++++++to 0.00170884
Heightened Def Con from 0.00170884 to 0.00170885
Heightened Def Con from 0.00170892 ++++++++++++++++++++++++to 0.00170892
Heightened Def Con from 0.00170892 ++++++++++++++to 0.00170893
Heightened Def Con from 0.00170893 ++++++++++to 0.00170893
Heightened Def Con from 0.00170893 ++++++to 0.00170893
Heightened Def Con from 0.00170893 to 0.00170893
Heightened Def Con from 0.00173418 to 0.00173419
Heightened Def Con from 0.00173426 ++++++++++++++++++++++++to 0.00173426
Heightened Def Con from 0.00173426 to 0.00173426
Heightened Def Con from 0.00173426 to 0.00173426
Heightened Def Con from 0.00173426 to 0.00173426
Heightened Def Con from 0.00173426 to 0.00173426
Heightened Def Con from 0.00173426 to 0.00173426
Heightened Def Con from 0.00173426 to 0.00173426
Heightened Def Con from 0.00173426 to 0.00173426
Heightened Def Con from 0.00173426 to 0.00173426
Heightened Def Con from 0.00174075 to 0.00174075
Heightened Def Con from 0.00174075 to 0.00174075
Heightened Def Con from 0.00174083 to 0.00174083
Heightened Def Con from 0.00176533 to 0.00176533
Heightened Def Con from 0.00176533 to 0.00176533
Heightened Def Con from 0.00177278 ++++++++++++++++++++++++to 0.00177278
Heightened Def Con from 0.00177278 to 0.00177278
Heightened Def Con from 0.00177278 to 0.00177278
Heightened Def Con from 0.00177278 to 0.00177278
Heightened Def Con from 0.00178474 to 0.00178474
Heightened Def Con from 0.00179628 ++++++++++++++++++++++++to 0.00179628
Heightened Def Con from 0.00179628 +++++++++to 0.00179629
Heightened Def Con from 0.00179629 to 0.00179629
Heightened Def Con from 0.00179636 to 0.00179636
Heightened Def Con from 0.00179636 to 0.00179636
Heightened Def Con from 0.0018047 to 0.0018047
Heightened Def Con from 0.00180478 to 0.00180478
Heightened Def Con from 0.00180478 to 0.00180478
Heightened Def Con from 0.00182728 to 0.00182728
Heightened Def Con from 0.00182728 +++++++++++++++++++++++to 0.00182728
Heightened Def Con from 0.00182728 ++++++++++++++to 0.00182728
Heightened Def Con from 0.00182728 +++++to 0.00182728
Heightened Def Con from 0.00182736 to 0.00182736
Heightened Def Con from 0.00183681 to 0.00183681
Heightened Def Con from 0.00183681 to 0.00183681
Heightened Def Con from 0.00185832 to 0.00185832
Heightened Def Con from 0.00186363 to 0.00186363
Heightened Def Con from 0.00186879 +to 0.00186879
Heightened Def Con from 0.00186887 ++++++++++++++++++++++++to 0.00186887
Heightened Def Con from 0.00186887 ++to 0.00186887
Heightened Def Con from 0.00186887 to 0.00186887
Heightened Def Con from 0.00186887 to 0.00186887
Heightened Def Con from 0.00188926 +to 0.00188926
Heightened Def Con from 0.00189498 to 0.00189498
Heightened Def Con from 0.00190088 to 0.00190088
Heightened Def Con from 0.00190088 to 0.00190088
Heightened Def Con from 0.00190096 to 0.00190096
Heightened Def Con from 0.0019201 +++++++++++++++++++++++to 0.0019201
Heightened Def Con from 0.0019201 +++++++++to 0.0019201
Heightened Def Con from 0.0019201 to 0.00192011
Heightened Def Con from 0.00192018 to 0.00192018
Heightened Def Con from 0.00192018 to 0.00192018
Heightened Def Con from 0.00193299 ++++++++++++++++++++++++to 0.00193299
Heightened Def Con from 0.00193299 to 0.00193299
Heightened Def Con from 0.00193299 +++++++++++++++++++++++to 0.00193299
Heightened Def Con from 0.00193299 +++++++++++++to 0.00193299
Heightened Def Con from 0.00193299 to 0.00193299
Heightened Def Con from 0.00193299 to 0.00193299
Heightened Def Con from 0.00193307 +to 0.00193307
Heightened Def Con from 0.00195101 to 0.00195101
Heightened Def Con from 0.00195101 +++++++++++++++++++++++to 0.00195101
Heightened Def Con from 0.00195101 ++++++++++++++to 0.00195101
Heightened Def Con from 0.00195101 ++++++to 0.00195101
Heightened Def Con from 0.00196511 ++++++++++++++++++++++++to 0.00196511
Heightened Def Con from 0.00196511 +++++++++++++to 0.00196511
Heightened Def Con from 0.00196511 to 0.00196511
Heightened Def Con from 0.00196511 to 0.00196511
Heightened Def Con from 0.00198191 ++++++++++++++++++++++++to 0.00198191
Heightened Def Con from 0.00198191 +++++++++to 0.00198191
Heightened Def Con from 0.00198191 to 0.00198191
Heightened Def Con from 0.00198199 to 0.00198199
Heightened Def Con from 0.00199724 +to 0.00199724
Heightened Def Con from 0.00199724 to 0.00199724
Heightened Def Con from 0.00199724 to 0.00199724
Heightened Def Con from 0.00199732 to 0.00199732
Heightened Def Con from 0.0020128 to 0.0020128
Heightened Def Con from 0.0020128 to 0.0020128
Heightened Def Con from 0.0020128 +to 0.0020128
Heightened Def Con from 0.00201288 ++++++++++++++++++++++++to 0.00201288
Heightened Def Con from 0.00201288 to 0.00201288
Heightened Def Con from 0.00201288 to 0.00201288
Heightened Def Con from 0.00202113 to 0.00202113
Heightened Def Con from 0.00202937 to 0.00202937
Heightened Def Con from 0.00204377 ++++++++++++++++++++++++to 0.00204377
Heightened Def Con from 0.00204377 to 0.00204377
Heightened Def Con from 0.00204377 to 0.00204377
Heightened Def Con from 0.00204377 +to 0.00204377
Heightened Def Con from 0.00204377 to 0.00204377
Heightened Def Con from 0.0020615 +to 0.0020615
Heightened Def Con from 0.00206158 ++++++++++++++++++++++++to 0.00206158
Heightened Def Con from 0.00206158 ++++++++++++++to 0.00206158
Heightened Def Con from 0.00206158 ++++++++++++++to 0.00206158
Heightened Def Con from 0.00206158 ++++++to 0.00206158
Heightened Def Con from 0.0020746 to 0.0020746
Heightened Def Con from 0.0020746 to 0.0020746
Heightened Def Con from 0.00207468 to 0.00207468
Heightened Def Con from 0.00209361 to 0.00209361
Heightened Def Con from 0.00209361 to 0.00209361
Heightened Def Con from 0.00209369 to 0.00209369
Heightened Def Con from 0.00210552 +++++++++++++++++++++++to 0.00210552
Heightened Def Con from 0.00210552 +++++++++to 0.00210552
Heightened Def Con from 0.00210552 to 0.00210553
Heightened Def Con from 0.0021056 ++++++++++++++++++++++++to 0.0021056
Heightened Def Con from 0.0021056 to 0.0021056
Heightened Def Con from 0.0021056 to 0.0021056
Heightened Def Con from 0.0021257 to 0.00212571
Heightened Def Con from 0.00212578 ++++++++++++++++++++++++to 0.00212579
Heightened Def Con from 0.00212579 ++++++++++++++to 0.00212579
Heightened Def Con from 0.00212579 ++++++++++++++to 0.00212579
Heightened Def Con from 0.00212579 ++++++to 0.00212579
Heightened Def Con from 0.00212579 to 0.00212579
Heightened Def Con from 0.00213646 +++++++++++++++++++++++to 0.00213646
Heightened Def Con from 0.00213646 +++++++++to 0.00213646
Heightened Def Con from 0.00213646 to 0.00213646
Heightened Def Con from 0.00213654 ++++++++++++++++++++++++to 0.00213654
Heightened Def Con from 0.00213654 to 0.00213654
Heightened Def Con from 0.00213654 to 0.00213654
Heightened Def Con from 0.00215777 to 0.00215778
Heightened Def Con from 0.00215785 ++++++++++++++++++++++++to 0.00215785
Heightened Def Con from 0.00215785 ++++++++++++++to 0.00215785
Heightened Def Con from 0.00215785 ++++++++++++++to 0.00215786
Heightened Def Con from 0.00215786 ++++++to 0.00215786
Heightened Def Con from 0.00216742 to 0.00216742
Heightened Def Con from 0.00216742 to 0.00216742
Heightened Def Con from 0.0021675 to 0.0021675
Heightened Def Con from 0.00218981 to 0.00218981
Heightened Def Con from 0.00218989 ++++++++++++++++++++++++to 0.00218989
Heightened Def Con from 0.00218989 +++++++++++++to 0.00218989
Heightened Def Con from 0.00218989 +++++++++to 0.00218989
Heightened Def Con from 0.00218989 to 0.0021899
Heightened Def Con from 0.00219841 to 0.00219841
Heightened Def Con from 0.00219849 ++++++++++++++++++++++++to 0.00219849
Heightened Def Con from 0.00219849 to 0.00219849
Heightened Def Con from 0.00219849 to 0.00219849
Heightened Def Con from 0.00222181 to 0.00222181
Heightened Def Con from 0.00222189 +to 0.00222189
Heightened Def Con from 0.00222943 +++++++++++++++++++++++to 0.00222943
Heightened Def Con from 0.00222943 +++++++++to 0.00222943
Heightened Def Con from 0.00225378 to 0.00225378
Heightened Def Con from 0.00225386 to 0.00225386
Heightened Def Con from 0.00225386 to 0.00225386
Heightened Def Con from 0.00225386 to 0.00225386
Heightened Def Con from 0.0022605 to 0.0022605
Heightened Def Con from 0.0022605 to 0.0022605
Heightened Def Con from 0.0022605 to 0.0022605
Heightened Def Con from 0.00226058 to 0.00226058
Heightened Def Con from 0.00226058 to 0.00226058
Heightened Def Con from 0.00226058 ++++++++++++++++++++++++to 0.00226058
Heightened Def Con from 0.00226058 ++++++++++++++to 0.00226058
Heightened Def Con from 0.00226058 +++++++++to 0.00226058
Heightened Def Con from 0.00228569 to 0.00228569
Heightened Def Con from 0.00228577 to 0.00228577
Heightened Def Con from 0.00228889 to 0.00228889
Heightened Def Con from 0.00229161 ++++++++++++++++++++++++to 0.00229161
Heightened Def Con from 0.00229161 to 0.00229161
Heightened Def Con from 0.00229161 ++++++++++++++++++++++++to 0.00229161
Heightened Def Con from 0.00229161 to 0.00229161
Heightened Def Con from 0.00229161 to 0.00229161
Heightened Def Con from 0.00229168 to 0.00229168
Heightened Def Con from 0.00229168 to 0.00229168
Heightened Def Con from 0.00229168 to 0.00229169
Heightened Def Con from 0.00231756 to 0.00231756
Heightened Def Con from 0.00231756 to 0.00231756
Heightened Def Con from 0.00231764 +++++++++++++++++++++++++to 0.00231764
Heightened Def Con from 0.00231764 ++++++++++++++to 0.00231764
Heightened Def Con from 0.00231764 to 0.00231764
Heightened Def Con from 0.00232276 to 0.00232276
Heightened Def Con from 0.00232276 to 0.00232276
Heightened Def Con from 0.00232284 to 0.00232284
Heightened Def Con from 0.00234937 to 0.00234937
Heightened Def Con from 0.00234945 to 0.00234945
Heightened Def Con from 0.00235396 ++++++++++++++++++++++++to 0.00235396
Heightened Def Con from 0.00235396 to 0.00235396
Heightened Def Con from 0.00235396 to 0.00235397
Heightened Def Con from 0.00235404 ++++++++++++++++++++++++to 0.00235404
Heightened Def Con from 0.00235404 to 0.00235404
Heightened Def Con from 0.00235404 ++++++++++++++++++++++++to 0.00235404
Heightened Def Con from 0.00235404 to 0.00235404
Heightened Def Con from 0.00235404 to 0.00235404
Heightened Def Con from 0.00235404 to 0.00235404
Heightened Def Con from 0.00236764 to 0.00236764
Heightened Def Con from 0.00238113 ++++++++++++++++++++++++to 0.00238113
Heightened Def Con from 0.00238113 ++++++++++++++to 0.00238113
Heightened Def Con from 0.00238113 +++to 0.00238113
Heightened Def Con from 0.00238121 to 0.00238121
Heightened Def Con from 0.00238522 to 0.00238522
Heightened Def Con from 0.00238522 to 0.00238522
Heightened Def Con from 0.0023853 to 0.0023853
Heightened Def Con from 0.00241283 ++++++++++++++++++++++++to 0.00241283
Heightened Def Con from 0.00241283 ++++++++++++++to 0.00241283
Heightened Def Con from 0.00241283 +++to 0.00241283
Heightened Def Con from 0.00241291 ++++++++++++++++++++++++to 0.00241291
Heightened Def Con from 0.00241291 ++++++++++++++to 0.00241291
Heightened Def Con from 0.00241291 +++++++++++to 0.00241291
Heightened Def Con from 0.00241291 to 0.00241291
Heightened Def Con from 0.00241654 +to 0.00241654
Heightened Def Con from 0.00241654 to 0.00241654
Heightened Def Con from 0.00241661 to 0.00241661
Heightened Def Con from 0.00244455 ++++++++++++++++++++++++to 0.00244455
Heightened Def Con from 0.00244455 ++++++++++++++to 0.00244455
Heightened Def Con from 0.00244455 +++++++++++to 0.00244455
Heightened Def Con from 0.00244455 to 0.00244455
Heightened Def Con from 0.0024479 to 0.0024479
Heightened Def Con from 0.0024479 to 0.0024479
Heightened Def Con from 0.0024479 to 0.0024479
Heightened Def Con from 0.0024479 to 0.0024479
Heightened Def Con from 0.0024479 to 0.00244791
Heightened Def Con from 0.00244798 +to 0.00244798
Heightened Def Con from 0.00244798 to 0.00244798
Heightened Def Con from 0.00244798 to 0.00244798
Heightened Def Con from 0.00246214 to 0.00246214
Heightened Def Con from 0.00247605 to 0.00247605
Heightened Def Con from 0.00247933 to 0.00247933
Heightened Def Con from 0.00247933 to 0.00247934
Heightened Def Con from 0.00247941 to 0.00247941
Heightened Def Con from 0.00247941 to 0.00247941
Heightened Def Con from 0.00250756 ++++++++++++++++++++++++to 0.00250756
Heightened Def Con from 0.00250756 +++++++++++++to 0.00250757
Heightened Def Con from 0.00250757 to 0.00250757
Heightened Def Con from 0.00250757 to 0.00250757
Heightened Def Con from 0.00250757 to 0.00250757
Heightened Def Con from 0.00250757 ++to 0.00250757
Heightened Def Con from 0.00250757 to 0.00250757
Heightened Def Con from 0.00250757 +to 0.00250757
Heightened Def Con from 0.00250757 to 0.00250757
Heightened Def Con from 0.00251083 +++++++++++++++++++++++to 0.00251083
Heightened Def Con from 0.00251083 +++++++++to 0.00251083
Heightened Def Con from 0.00251083 to 0.00251083
Heightened Def Con from 0.00251091 to 0.00251091
Heightened Def Con from 0.00253902 +++++++++++++++++++++++to 0.00253902
Heightened Def Con from 0.00253902 +++++++++++++to 0.00253902
Heightened Def Con from 0.00253902 to 0.00253902
Heightened Def Con from 0.00253902 to 0.00253902
Heightened Def Con from 0.00253902 to 0.00253902
Heightened Def Con from 0.0025391 ++++++++++++++++++++++++to 0.0025391
Heightened Def Con from 0.0025391 ++++++++++++++to 0.0025391
Heightened Def Con from 0.0025391 +++++++++++to 0.0025391
Heightened Def Con from 0.0025391 to 0.0025391
Heightened Def Con from 0.00254238 to 0.00254238
Heightened Def Con from 0.00257042 to 0.00257042
Heightened Def Con from 0.00257049 to 0.00257049
Heightened Def Con from 0.00257399 +to 0.00257399
Heightened Def Con from 0.00257399 to 0.00257399
Heightened Def Con from 0.00257407 to 0.00257407
Heightened Def Con from 0.00260175 ++++++++++++++++++++++++to 0.00260175
Heightened Def Con from 0.00260175 ++++++++++++++to 0.00260175
Heightened Def Con from 0.00260175 ++++to 0.00260175
Heightened Def Con from 0.00260183 ++++++++++++++++++++++++to 0.00260183
Heightened Def Con from 0.00260183 ++++++++++++++to 0.00260183
Heightened Def Con from 0.00260183 ++++++++++to 0.00260183
Heightened Def Con from 0.00260183 to 0.00260183
Heightened Def Con from 0.00260183 to 0.00260183
Heightened Def Con from 0.00260566 +++++++++++++++++++++++to 0.00260566
Heightened Def Con from 0.00260566 +++++++++to 0.00260567
Heightened Def Con from 0.00260567 to 0.00260567
Heightened Def Con from 0.00260574 to 0.00260575
Heightened Def Con from 0.00263311 +to 0.00263311
Heightened Def Con from 0.0026374 to 0.0026374
Heightened Def Con from 0.00263748 to 0.00263748
Heightened Def Con from 0.00263748 to 0.00263748
Heightened Def Con from 0.00263748 to 0.00263748
Heightened Def Con from 0.00266433 to 0.00266434
Heightened Def Con from 0.00266919 to 0.00266919
Heightened Def Con from 0.00266927 ++++++++++++++++++++++++to 0.00266927
Heightened Def Con from 0.00266927 to 0.00266927
Heightened Def Con from 0.00266927 to 0.00266927
Heightened Def Con from 0.00266927 to 0.00266927
Heightened Def Con from 0.00269543 to 0.00269543
Heightened Def Con from 0.00269551 to 0.00269551
Heightened Def Con from 0.00270103 to 0.00270103
Heightened Def Con from 0.00270111 to 0.00270111
Heightened Def Con from 0.00271415 to 0.00271415
Heightened Def Con from 0.00272655 +++++++++++++++++++++++to 0.00272655
Heightened Def Con from 0.00272655 +++++++++++++to 0.00272656
Heightened Def Con from 0.00272656 to 0.00272656
Heightened Def Con from 0.00272656 to 0.00272656
Heightened Def Con from 0.00272656 to 0.00272656
Heightened Def Con from 0.00272656 to 0.00272656
Heightened Def Con from 0.00272656 to 0.00272656
Heightened Def Con from 0.00272656 to 0.00272656
Heightened Def Con from 0.00272656 ++to 0.00272656
Heightened Def Con from 0.00272656 to 0.00272656
Heightened Def Con from 0.00272656 ++++++++++++++++++++++to 0.00272656
Heightened Def Con from 0.00272656 +to 0.00272656
Heightened Def Con from 0.00272663 to 0.00272663
Heightened Def Con from 0.00273293 to 0.00273293
Heightened Def Con from 0.00273301 ++++++++++++++++++++++++to 0.00273301
Heightened Def Con from 0.00273301 to 0.00273301
Heightened Def Con from 0.00273301 to 0.00273301
Heightened Def Con from 0.00275763 +++++++++++++++++++++++to 0.00275763
Heightened Def Con from 0.00275763 +++++++++++++to 0.00275763
Heightened Def Con from 0.00275763 to 0.00275763
Heightened Def Con from 0.00275763 to 0.00275763
Heightened Def Con from 0.00275771 to 0.00275771
Heightened Def Con from 0.00275771 to 0.00275771
Heightened Def Con from 0.00276487 to 0.00276487
Heightened Def Con from 0.00278867 +to 0.00278867
Heightened Def Con from 0.00278875 to 0.00278875
Heightened Def Con from 0.00278875 to 0.00278875
Heightened Def Con from 0.00279685 +++++++++++++++++++++++to 0.00279685
Heightened Def Con from 0.00279685 ++++++++++++to 0.00279685
Heightened Def Con from 0.00279685 to 0.00279686
Heightened Def Con from 0.00279693 to 0.00279693
Heightened Def Con from 0.00281967 to 0.00281967
Heightened Def Con from 0.00281975 to 0.00281975
Heightened Def Con from 0.00281975 to 0.00281975
Heightened Def Con from 0.00282887 to 0.00282887
Heightened Def Con from 0.00282887 to 0.00282887
Heightened Def Con from 0.00282887 to 0.00282888
Heightened Def Con from 0.00286093 +++++++++++++++++++++++to 0.00286093
Heightened Def Con from 0.00286093 ++++++++++++to 0.00286093
Heightened Def Con from 0.00286093 to 0.00286094
Heightened Def Con from 0.00286101 to 0.00286101
Heightened Def Con from 0.00288159 to 0.00288159
Heightened Def Con from 0.00288726 to 0.00288726
Heightened Def Con from 0.00289301 to 0.00289301
Heightened Def Con from 0.00289301 to 0.00289301
Heightened Def Con from 0.00289301 to 0.00289302
Heightened Def Con from 0.00289309 to 0.00289309
Heightened Def Con from 0.00289309 to 0.00289309
Heightened Def Con from 0.00289309 to 0.00289309
Heightened Def Con from 0.00289309 to 0.00289309
Heightened Def Con from 0.00289309 to 0.00289309
Heightened Def Con from 0.00290315 to 0.00290315
Heightened Def Con from 0.00291252 to 0.00291252
Heightened Def Con from 0.00291252 to 0.00291252
Heightened Def Con from 0.00291259 to 0.0029126
Heightened Def Con from 0.00292512 to 0.00292512
Heightened Def Con from 0.0029252 to 0.0029252
Heightened Def Con from 0.00294343 to 0.00294343
Heightened Def Con from 0.0029435 +to 0.0029435
Heightened Def Con from 0.00295724 to 0.00295724
Heightened Def Con from 0.00295732 to 0.00295732
Heightened Def Con from 0.00297432 to 0.00297432
Heightened Def Con from 0.0029744 to 0.0029744
Heightened Def Con from 0.00298191 to 0.00298191
Heightened Def Con from 0.00298937 to 0.00298937
Heightened Def Con from 0.00298945 to 0.00298945
Heightened Def Con from 0.00300522 to 0.00300522
Heightened Def Con from 0.00300522 to 0.00300522
Heightened Def Con from 0.00300522 to 0.00300522
Heightened Def Con from 0.00300522 to 0.00300522
Heightened Def Con from 0.0030053 ++++++++++++++++++++++++to 0.0030053
Heightened Def Con from 0.0030053 ++++++++++++++to 0.0030053
Heightened Def Con from 0.0030053 ++++++++++to 0.0030053
Heightened Def Con from 0.0030053 +++++to 0.0030053
Heightened Def Con from 0.0030215 +++++++++++++++++++++++to 0.0030215
Heightened Def Con from 0.0030215 +++++++++to 0.0030215
Heightened Def Con from 0.0030215 to 0.0030215
Heightened Def Con from 0.00302158 to 0.00302158
Heightened Def Con from 0.00302916 to 0.00302916
Heightened Def Con from 0.00303612 to 0.00303612
Heightened Def Con from 0.00303619 to 0.00303619
Heightened Def Con from 0.00303619 to 0.00303619
Heightened Def Con from 0.00305363 +to 0.00305363
Heightened Def Con from 0.00305363 +to 0.00305363
Heightened Def Con from 0.00305363 +to 0.00305363
Heightened Def Con from 0.00305363 to 0.00305363
Heightened Def Con from 0.00305371 ++++++++++++++++++++++to 0.00305371
Heightened Def Con from 0.00305371 +++++++++++++to 0.00305371
Heightened Def Con from 0.00305371 to 0.00305371
Heightened Def Con from 0.00306702 to 0.00306702
Heightened Def Con from 0.00306702 to 0.00306702
Heightened Def Con from 0.0030671 to 0.0030671
Heightened Def Con from 0.00308574 to 0.00308574
Heightened Def Con from 0.00308582 to 0.00308582
Heightened Def Con from 0.00308582 to 0.00308582
Heightened Def Con from 0.00309793 to 0.00309793
Heightened Def Con from 0.00309801 ++++++++++++++++++++++++to 0.00309801
Heightened Def Con from 0.00309801 to 0.00309801
Heightened Def Con from 0.00309801 to 0.00309801
Heightened Def Con from 0.00309801 to 0.00309801
Heightened Def Con from 0.00311784 to 0.00311784
Heightened Def Con from 0.00311792 to 0.00311792
Heightened Def Con from 0.00312886 to 0.00312886
Heightened Def Con from 0.00312886 to 0.00312886
Heightened Def Con from 0.00312894 to 0.00312894
Heightened Def Con from 0.00312894 to 0.00312894
Heightened Def Con from 0.00312894 to 0.00312894
Heightened Def Con from 0.00314991 ++++++++++++++++++++++++to 0.00314991
Heightened Def Con from 0.00314991 +++++++++to 0.00314992
Heightened Def Con from 0.00314992 to 0.00314992
Heightened Def Con from 0.00314999 +to 0.00314999
Heightened Def Con from 0.00315982 to 0.00315982
Heightened Def Con from 0.00315989 ++++++++++++++++++++++++to 0.00315989
Heightened Def Con from 0.00315989 +++to 0.00315989
Heightened Def Con from 0.00315989 to 0.0031599
Heightened Def Con from 0.00318196 to 0.00318196
Heightened Def Con from 0.00318196 to 0.00318196
Heightened Def Con from 0.00318204 to 0.00318204
Heightened Def Con from 0.00318666 to 0.00318666
Heightened Def Con from 0.0031908 to 0.0031908
Heightened Def Con from 0.00321397 to 0.00321397
Heightened Def Con from 0.00321397 to 0.00321397
Heightened Def Con from 0.00321405 ++++++++++++++++++++++++to 0.00321405
Heightened Def Con from 0.00321405 to 0.00321405
Heightened Def Con from 0.00321405 to 0.00321405
Heightened Def Con from 0.00322181 to 0.00322181
Heightened Def Con from 0.00324594 to 0.00324594
Heightened Def Con from 0.00324602 to 0.00324602
Heightened Def Con from 0.00325286 ++++++++++++++++++++++++to 0.00325286
Heightened Def Con from 0.00325286 to 0.00325286
Heightened Def Con from 0.00325286 to 0.00325287
Heightened Def Con from 0.00325294 to 0.00325294
Heightened Def Con from 0.00325294 to 0.00325294
Heightened Def Con from 0.00327787 ++++++++++++++++++++++++to 0.00327787
Heightened Def Con from 0.00327787 to 0.00327787
Heightened Def Con from 0.00327787 to 0.00327787
Heightened Def Con from 0.00327787 to 0.00327787
Heightened Def Con from 0.00327795 ++++++++++++++++++++++++to 0.00327795
Heightened Def Con from 0.00327795 to 0.00327795
Heightened Def Con from 0.00327795 ++++++++++++++++++++++to 0.00327795
Heightened Def Con from 0.00327795 +++++++++++++to 0.00327795
Heightened Def Con from 0.00327795 to 0.00327795
Heightened Def Con from 0.00328396 to 0.00328396
Heightened Def Con from 0.00328403 to 0.00328403
Heightened Def Con from 0.00330974 +to 0.00330974
Heightened Def Con from 0.00330974 to 0.00330974
Heightened Def Con from 0.00330974 to 0.00330975
Heightened Def Con from 0.00330982 to 0.00330982
Heightened Def Con from 0.0033151 to 0.0033151
Heightened Def Con from 0.00331518 to 0.00331518
Heightened Def Con from 0.00334157 to 0.00334157
Heightened Def Con from 0.00334165 to 0.00334165
Heightened Def Con from 0.00334629 to 0.00334629
Heightened Def Con from 0.00334637 +to 0.00334637
Heightened Def Con from 0.00334637 to 0.00334637
Heightened Def Con from 0.00337334 to 0.00337334
Heightened Def Con from 0.00337342 to 0.00337342
Heightened Def Con from 0.00337342 +to 0.00337342
Heightened Def Con from 0.00337753 to 0.00337754
Heightened Def Con from 0.00340506 to 0.00340506
Heightened Def Con from 0.00340514 to 0.00340514
Heightened Def Con from 0.00340883 to 0.00340883
Heightened Def Con from 0.00343671 to 0.00343671
Heightened Def Con from 0.00343679 to 0.00343679
Heightened Def Con from 0.00343679 to 0.00343679
Heightened Def Con from 0.00343679 to 0.00343679
Heightened Def Con from 0.00343679 to 0.00343679
Heightened Def Con from 0.00343852 to 0.00343852
Heightened Def Con from 0.00344019 +++++++++++++++++++++++to 0.00344019
Heightened Def Con from 0.00344019 +++++++++to 0.00344019
Heightened Def Con from 0.00344019 to 0.00344019
Heightened Def Con from 0.00344027 to 0.00344027
Heightened Def Con from 0.00344027 to 0.00344027
Heightened Def Con from 0.00346831 to 0.00346831
Heightened Def Con from 0.00346838 to 0.00346838
Heightened Def Con from 0.00347161 to 0.00347161
Heightened Def Con from 0.00347169 ++++++++++++++++++++++++to 0.00347169
Heightened Def Con from 0.00347169 ++++++++++++++to 0.00347169
Heightened Def Con from 0.00347169 +++++++++to 0.00347169
Heightened Def Con from 0.00347169 to 0.00347169
Heightened Def Con from 0.00347169 to 0.00347169
Heightened Def Con from 0.00349992 to 0.00349992
Heightened Def Con from 0.00349992 to 0.00349992
Heightened Def Con from 0.00350152 to 0.00350152
Heightened Def Con from 0.00350308 +++++++++++++++++++++++to 0.00350308
Heightened Def Con from 0.00350308 +++++++++to 0.00350308
Heightened Def Con from 0.00350308 to 0.00350309
Heightened Def Con from 0.00350316 to 0.00350316
Heightened Def Con from 0.00351728 to 0.00351728
Heightened Def Con from 0.00353131 +to 0.00353131
Heightened Def Con from 0.00353138 ++++++++++++++++++++++++to 0.00353138
Heightened Def Con from 0.00353138 to 0.00353139
Heightened Def Con from 0.00353462 ++++++++++++++++++++++++to 0.00353462
Heightened Def Con from 0.00353462 +++++++++to 0.00353462
Heightened Def Con from 0.00353462 to 0.00353462
Heightened Def Con from 0.0035347 to 0.0035347
Heightened Def Con from 0.0035347 +to 0.0035347
Heightened Def Con from 0.00356271 ++++++++++++++++++++++++to 0.00356271
Heightened Def Con from 0.00356271 to 0.00356272
Heightened Def Con from 0.00356279 to 0.00356279
Heightened Def Con from 0.00356279 to 0.00356279
Heightened Def Con from 0.00356622 to 0.00356622
Heightened Def Con from 0.00356622 to 0.00356622
Heightened Def Con from 0.00356622 to 0.00356622
Heightened Def Con from 0.00356622 to 0.00356622
Heightened Def Con from 0.00356622 to 0.00356622
Heightened Def Con from 0.00356629 to 0.0035663
Heightened Def Con from 0.00359407 to 0.00359407
Heightened Def Con from 0.00359414 to 0.00359414
Heightened Def Con from 0.00359787 +to 0.00359787
Heightened Def Con from 0.00359795 ++++++++++++++++++++++++to 0.00359795
Heightened Def Con from 0.00359795 to 0.00359795
Heightened Def Con from 0.00359795 to 0.00359796
Heightened Def Con from 0.00362536 to 0.00362536
Heightened Def Con from 0.00362544 to 0.00362544
Heightened Def Con from 0.00362544 to 0.00362544
Heightened Def Con from 0.00362544 to 0.00362544
Heightened Def Con from 0.00362544 to 0.00362544
Heightened Def Con from 0.0036296 to 0.0036296
Heightened Def Con from 0.0036566 to 0.0036566
Heightened Def Con from 0.0036566 to 0.0036566
Heightened Def Con from 0.00365668 to 0.00365668
Heightened Def Con from 0.00366137 to 0.00366137
Heightened Def Con from 0.00366137 to 0.00366137
Heightened Def Con from 0.00366145 to 0.00366145
Heightened Def Con from 0.00366145 to 0.00366145
Heightened Def Con from 0.00368778 +++++++++++++++++++++++to 0.00368778
Heightened Def Con from 0.00368778 ++++++++++++++to 0.00368778
Heightened Def Con from 0.00368778 +++++to 0.00368779
Heightened Def Con from 0.00368786 +to 0.00368786
Heightened Def Con from 0.00369328 ++++++++++++++++++++++++to 0.00369328
Heightened Def Con from 0.00369328 to 0.00369328
Heightened Def Con from 0.00371892 to 0.00371892
Heightened Def Con from 0.003719 to 0.003719
Heightened Def Con from 0.00372516 to 0.00372517
Heightened Def Con from 0.00375001 ++++++++++++++++++++++++to 0.00375001
Heightened Def Con from 0.00375001 to 0.00375001
Heightened Def Con from 0.00375001 to 0.00375001
Heightened Def Con from 0.00375009 ++++++++++++++++++++++++to 0.00375009
Heightened Def Con from 0.00375009 to 0.00375009
Heightened Def Con from 0.00375367 to 0.00375367
Heightened Def Con from 0.00375701 to 0.00375702
Heightened Def Con from 0.00375709 to 0.00375709
Heightened Def Con from 0.00378106 to 0.00378106
Heightened Def Con from 0.00378106 to 0.00378106
Heightened Def Con from 0.00378113 to 0.00378113
Heightened Def Con from 0.00378907 to 0.00378907
Heightened Def Con from 0.00381207 +++++++++++++++++++++++to 0.00381207
Heightened Def Con from 0.00381207 ++++++++++++++to 0.00381207
Heightened Def Con from 0.00381207 +++++to 0.00381207
Heightened Def Con from 0.00381215 ++++++++++++++++++++++++to 0.00381215
Heightened Def Con from 0.00381215 to 0.00381215
Heightened Def Con from 0.003821 ++++++++++++++++++++++++to 0.003821
Heightened Def Con from 0.003821 to 0.003821
Heightened Def Con from 0.003821 to 0.003821
Heightened Def Con from 0.00382108 to 0.00382108
Heightened Def Con from 0.00382108 to 0.00382109
Heightened Def Con from 0.00384305 +++++++++++++++++++++++to 0.00384305
Heightened Def Con from 0.00384305 ++++++++++++++to 0.00384305
Heightened Def Con from 0.00384305 +++++to 0.00384305
Heightened Def Con from 0.00384313 to 0.00384313
Heightened Def Con from 0.00384313 to 0.00384313
Heightened Def Con from 0.00384817 to 0.00384817
Heightened Def Con from 0.00385305 to 0.00385305
Heightened Def Con from 0.003874 to 0.003874
Heightened Def Con from 0.003874 to 0.003874
Heightened Def Con from 0.003874 +++++++++++++++++++++++to 0.003874
Heightened Def Con from 0.003874 ++++++++++++++to 0.003874
Heightened Def Con from 0.003874 ++++++to 0.003874
Heightened Def Con from 0.00387408 to 0.00387408
Heightened Def Con from 0.00388513 to 0.00388513
Heightened Def Con from 0.00388513 to 0.00388513
Heightened Def Con from 0.00388521 +++++++++++++++++++++++to 0.00388521
Heightened Def Con from 0.00388521 +++++++++++++++to 0.00388521
Heightened Def Con from 0.00388521 +++++++++++to 0.00388521
Heightened Def Con from 0.00388521 +++++++++to 0.00388521
Heightened Def Con from 0.00388521 +++++to 0.00388521
Heightened Def Con from 0.00388521 to 0.00388521
Heightened Def Con from 0.00390493 to 0.00390493
Heightened Def Con from 0.00390501 to 0.00390501
Heightened Def Con from 0.00391723 to 0.00391723
Heightened Def Con from 0.00391723 +++++++++++++++++++++++to 0.00391723
Heightened Def Con from 0.00391723 +++++++++++++to 0.00391723
Heightened Def Con from 0.00391723 to 0.00391723
Heightened Def Con from 0.00391723 to 0.00391724
Heightened Def Con from 0.00391731 to 0.00391731
Heightened Def Con from 0.00391731 ++++++++++++++++++++++++to 0.00391731
Heightened Def Con from 0.00391731 to 0.00391731
Heightened Def Con from 0.00391731 to 0.00391731
Heightened Def Con from 0.00391731 to 0.00391731
Heightened Def Con from 0.00391731 to 0.00391731
Heightened Def Con from 0.00391731 to 0.00391731
Heightened Def Con from 0.00392693 to 0.00392693
Heightened Def Con from 0.00393584 to 0.00393584
Heightened Def Con from 0.00393592 to 0.00393592
Heightened Def Con from 0.00393592 to 0.00393592
Heightened Def Con from 0.00394935 to 0.00394935
Heightened Def Con from 0.00395828 to 0.00395828
Heightened Def Con from 0.00396674 to 0.00396674
Heightened Def Con from 0.00398147 to 0.00398148
Heightened Def Con from 0.00398155 to 0.00398155
Heightened Def Con from 0.00398155 to 0.00398155
Heightened Def Con from 0.00399764 to 0.00399764
Heightened Def Con from 0.00399764 to 0.00399764
Heightened Def Con from 0.00399764 to 0.00399764
Heightened Def Con from 0.00401361 +to 0.00401361
Heightened Def Con from 0.00401361 +to 0.00401361
Heightened Def Con from 0.00401361 to 0.00401361
Heightened Def Con from 0.00401369 to 0.00401369
Heightened Def Con from 0.00401369 to 0.00401369
Heightened Def Con from 0.00402853 to 0.00402853
Heightened Def Con from 0.00402853 to 0.00402853
Heightened Def Con from 0.00402853 to 0.00402854
Heightened Def Con from 0.00402861 ++++to 0.00402861
Heightened Def Con from 0.00404573 to 0.00404573
Heightened Def Con from 0.00404581 to 0.00404581
Heightened Def Con from 0.00404581 to 0.00404581
Heightened Def Con from 0.00405943 to 0.00405943
Heightened Def Con from 0.00405943 to 0.00405943
Heightened Def Con from 0.00405943 to 0.00405943
Heightened Def Con from 0.00405943 to 0.00405943
Heightened Def Con from 0.00405943 to 0.00405943
Heightened Def Con from 0.00405943 to 0.00405943
Heightened Def Con from 0.00405943 to 0.00405943
Heightened Def Con from 0.00405943 +++++++++++++++++++++++to 0.00405943
Heightened Def Con from 0.00405943 +++++++++to 0.00405943
Heightened Def Con from 0.00405943 to 0.00405944
Heightened Def Con from 0.00405951 to 0.00405951
Heightened Def Con from 0.00407785 to 0.00407785
Heightened Def Con from 0.00407785 to 0.00407785
Heightened Def Con from 0.00407793 ++++++++++++++++++++++++to 0.00407793
Heightened Def Con from 0.00407793 ++++++++++++++to 0.00407793
Heightened Def Con from 0.00407793 ++++++++++++++to 0.00407793
Heightened Def Con from 0.00407793 ++++++to 0.00407793
Heightened Def Con from 0.00407793 to 0.00407794
Heightened Def Con from 0.00407794 to 0.00407794
Heightened Def Con from 0.00409034 to 0.00409034
Heightened Def Con from 0.00409034 to 0.00409034
Heightened Def Con from 0.00409042 ++++++++++++++++++++++++to 0.00409042
Heightened Def Con from 0.00409042 to 0.00409042
Heightened Def Con from 0.00409042 to 0.00409042
Heightened Def Con from 0.00409042 to 0.00409042
Heightened Def Con from 0.00409042 to 0.00409042
Heightened Def Con from 0.00409042 to 0.00409042
Heightened Def Con from 0.00409042 to 0.00409042
Heightened Def Con from 0.00410995 to 0.00410995
Heightened Def Con from 0.00411592 to 0.00411593
Heightened Def Con from 0.00412127 +++++++++++++++++++++++to 0.00412127
Heightened Def Con from 0.00412127 +++++++++to 0.00412127
Heightened Def Con from 0.00412127 to 0.00412127
Heightened Def Con from 0.00412135 ++++++++++++++++++++++++to 0.00412135
Heightened Def Con from 0.00412135 to 0.00412135
Heightened Def Con from 0.00412135 to 0.00412135
Heightened Def Con from 0.00414204 +++++++++++++++++++++++to 0.00414204
Heightened Def Con from 0.00414204 +++++++++++++to 0.00414204
Heightened Def Con from 0.00414204 to 0.00414204
Heightened Def Con from 0.00414204 to 0.00414204
Heightened Def Con from 0.00414204 +to 0.00414204
Heightened Def Con from 0.00414204 to 0.00414204
Heightened Def Con from 0.00414212 to 0.00414212
Heightened Def Con from 0.00414212 to 0.00414212
Heightened Def Con from 0.0041523 ++++++++++++++++++++++++to 0.0041523
Heightened Def Con from 0.0041523 to 0.0041523
Heightened Def Con from 0.0041523 to 0.0041523
Heightened Def Con from 0.00417409 to 0.00417409
Heightened Def Con from 0.00417409 to 0.00417409
Heightened Def Con from 0.00417409 to 0.00417409
Heightened Def Con from 0.00417417 +++++++++++++++++++++++++to 0.00417418
Heightened Def Con from 0.00417418 ++++++++++++++++to 0.00417418
Heightened Def Con from 0.00417418 ++++++++++++to 0.00417418
Heightened Def Con from 0.00417418 +++++++++++to 0.00417418
Heightened Def Con from 0.00417418 to 0.00417418
Heightened Def Con from 0.00417418 to 0.00417418
Heightened Def Con from 0.0041832 to 0.0041832
Heightened Def Con from 0.0041832 to 0.0041832
Heightened Def Con from 0.0041832 to 0.0041832
Heightened Def Con from 0.00418328 ++++++++++++++++++++++++to 0.00418328
Heightened Def Con from 0.00418328 to 0.00418328
Heightened Def Con from 0.00418328 to 0.00418328
Heightened Def Con from 0.00419453 to 0.00419453
Heightened Def Con from 0.00420612 to 0.00420612
Heightened Def Con from 0.0042062 to 0.0042062
Heightened Def Con from 0.0042062 to 0.0042062
Heightened Def Con from 0.00421421 to 0.00421421
Heightened Def Con from 0.00421428 ++++++++++++++++++++++++to 0.00421428
Heightened Def Con from 0.00421428 to 0.00421428
Heightened Def Con from 0.00421428 to 0.00421429
Heightened Def Con from 0.0042381 to 0.0042381
Heightened Def Con from 0.0042381 to 0.0042381
Heightened Def Con from 0.00423818 +++++++++++++++++++++++++to 0.00423818
Heightened Def Con from 0.00423818 +++++++++++++to 0.00423818
Heightened Def Con from 0.00423818 ++++++++++to 0.00423818
Heightened Def Con from 0.00423818 to 0.00423818
Heightened Def Con from 0.00424525 to 0.00424525
Heightened Def Con from 0.00424525 to 0.00424525
Heightened Def Con from 0.00427004 to 0.00427004
Heightened Def Con from 0.00427004 to 0.00427004
Heightened Def Con from 0.00427633 to 0.00427633
Heightened Def Con from 0.00427641 to 0.00427641
Heightened Def Con from 0.00427641 to 0.00427641
Heightened Def Con from 0.00430192 ++++++++++++++++++++++++to 0.00430192
Heightened Def Con from 0.00430192 ++++++++++++++to 0.00430192
Heightened Def Con from 0.00430192 ++++to 0.00430193
Heightened Def Con from 0.004302 to 0.004302
Heightened Def Con from 0.00430746 +to 0.00430746
Heightened Def Con from 0.00430746 to 0.00430746
Heightened Def Con from 0.00433377 ++++++++++++++++++++++++to 0.00433377
Heightened Def Con from 0.00433377 ++++++++++++++to 0.00433377
Heightened Def Con from 0.00433377 +++to 0.00433377
Heightened Def Con from 0.00433864 ++++++++++++++++++++++++to 0.00433864
Heightened Def Con from 0.00433864 to 0.00433864
Heightened Def Con from 0.00433864 to 0.00433864
Heightened Def Con from 0.00433864 to 0.00433864
Heightened Def Con from 0.00433864 to 0.00433864
Heightened Def Con from 0.00433872 ++++++++++++++++++++++to 0.00433872
Heightened Def Con from 0.00433872 ++++++++++++to 0.00433872
Heightened Def Con from 0.00433872 ++++++++++to 0.00433872
Heightened Def Con from 0.00433872 ++++++++to 0.00433872
Heightened Def Con from 0.00433872 to 0.00433872
Heightened Def Con from 0.00433872 to 0.00433872
Heightened Def Con from 0.00436555 to 0.00436555
Heightened Def Con from 0.00436563 ++++++++++++++++++++++++to 0.00436563
Heightened Def Con from 0.00436563 ++++++++++++++to 0.00436563
Heightened Def Con from 0.00436563 ++++++++++to 0.00436563
Heightened Def Con from 0.00436563 to 0.00436563
Heightened Def Con from 0.00436563 to 0.00436563
Heightened Def Con from 0.00436987 +++++++++++++++++++++++to 0.00436987
Heightened Def Con from 0.00436987 +++++++++to 0.00436987
Heightened Def Con from 0.00436987 to 0.00436988
Heightened Def Con from 0.00436995 to 0.00436995
Heightened Def Con from 0.00436995 to 0.00436995
Heightened Def Con from 0.00439728 to 0.00439728
Heightened Def Con from 0.00439736 ++++++++++++++++++++++++to 0.00439736
Heightened Def Con from 0.00439736 ++++++++++++++to 0.00439736
Heightened Def Con from 0.00439736 to 0.00439736
Heightened Def Con from 0.00440116 to 0.00440116
Heightened Def Con from 0.00442895 to 0.00442895
Heightened Def Con from 0.00442903 ++++++++++++++++++++++++to 0.00442903
Heightened Def Con from 0.00442903 ++++++++++++++to 0.00442903
Heightened Def Con from 0.00442903 ++++++++++to 0.00442903
Heightened Def Con from 0.00442903 to 0.00442903
Heightened Def Con from 0.0044325 to 0.0044325
Heightened Def Con from 0.00443258 to 0.00443258
Heightened Def Con from 0.00446055 ++++++++++++++++++++++++to 0.00446055
Heightened Def Con from 0.00446055 +++++++++++++to 0.00446056
Heightened Def Con from 0.00446056 to 0.00446056
Heightened Def Con from 0.00446056 to 0.00446056
Heightened Def Con from 0.00446056 to 0.00446056
Heightened Def Con from 0.00446056 to 0.00446056
Heightened Def Con from 0.00446056 +to 0.00446056
Heightened Def Con from 0.00446056 +to 0.00446056
Heightened Def Con from 0.00446056 +to 0.00446056
Heightened Def Con from 0.00446056 +to 0.00446056
Heightened Def Con from 0.00446056 to 0.00446056
Heightened Def Con from 0.00446056 to 0.00446056
Heightened Def Con from 0.00446056 to 0.00446056
Heightened Def Con from 0.00446056 to 0.00446056
Heightened Def Con from 0.00446056 to 0.00446056
Heightened Def Con from 0.00446063 ++++++++++++++++++++++++to 0.00446063
Heightened Def Con from 0.00446063 ++++++++++++++to 0.00446063
Heightened Def Con from 0.00446063 ++++++++++to 0.00446063
Heightened Def Con from 0.00446063 to 0.00446064
Heightened Def Con from 0.0044639 to 0.0044639
Heightened Def Con from 0.00446398 to 0.00446398
Heightened Def Con from 0.00446398 to 0.00446398
Heightened Def Con from 0.00447803 to 0.00447804
Heightened Def Con from 0.0044921 to 0.0044921
Heightened Def Con from 0.0044921 to 0.0044921
Heightened Def Con from 0.0044921 to 0.0044921
Heightened Def Con from 0.00449536 +++++++++++++++++++++++to 0.00449536
Heightened Def Con from 0.00449536 +++++++++to 0.00449536
Heightened Def Con from 0.00449536 to 0.00449536
Heightened Def Con from 0.00449544 to 0.00449544
Heightened Def Con from 0.00452359 to 0.00452359
Heightened Def Con from 0.00452366 +++++++++++++++++++++++to 0.00452366
Heightened Def Con from 0.00452366 ++++++++++++++to 0.00452367
Heightened Def Con from 0.00452367 ++++++++++to 0.00452367
Heightened Def Con from 0.00452367 +++++++to 0.00452367
Heightened Def Con from 0.00452367 to 0.00452367
Heightened Def Con from 0.00452367 to 0.00452367
Heightened Def Con from 0.00452688 to 0.00452689
Heightened Def Con from 0.00452696 to 0.00452696
Heightened Def Con from 0.00452696 to 0.00452696
Heightened Def Con from 0.00455501 to 0.00455501
Heightened Def Con from 0.00455509 +to 0.00455509
Heightened Def Con from 0.00455694 to 0.00455694
Heightened Def Con from 0.00455855 to 0.00455855
Heightened Def Con from 0.00458646 to 0.00458646
Heightened Def Con from 0.00459019 to 0.00459019
Heightened Def Con from 0.00461769 ++++++++++++++++++++++++to 0.00461769
Heightened Def Con from 0.00461769 ++++++++++++++to 0.00461769
Heightened Def Con from 0.00461769 ++++to 0.00461769
Heightened Def Con from 0.00461777 ++++++++++++++++++++++++to 0.00461777
Heightened Def Con from 0.00461777 ++++++++++++++to 0.00461777
Heightened Def Con from 0.00461777 ++++++++++to 0.00461777
Heightened Def Con from 0.00461777 to 0.00461777
Heightened Def Con from 0.00461777 to 0.00461777
Heightened Def Con from 0.00462182 +++++++++++++++++++++++to 0.00462182
Heightened Def Con from 0.00462182 +++++++++to 0.00462182
Heightened Def Con from 0.0046219 ++++++++++++++++++++++++to 0.0046219
Heightened Def Con from 0.0046219 to 0.0046219
Heightened Def Con from 0.0046219 to 0.0046219
Heightened Def Con from 0.00464894 ++++++++++++++++++++++++to 0.00464894
Heightened Def Con from 0.00464894 ++++++++++++++to 0.00464894
Heightened Def Con from 0.00464894 ++++to 0.00464894
Heightened Def Con from 0.00464902 ++++++++++++++++++++++++to 0.00464902
Heightened Def Con from 0.00464902 ++++++++++++++to 0.00464902
Heightened Def Con from 0.00464902 ++++++++++to 0.00464902
Heightened Def Con from 0.00464902 to 0.00464902
Heightened Def Con from 0.00465358 to 0.00465358
Heightened Def Con from 0.00465366 to 0.00465366
Heightened Def Con from 0.00465366 to 0.00465366
Heightened Def Con from 0.00468013 to 0.00468014
Heightened Def Con from 0.00468021 to 0.00468021
Heightened Def Con from 0.0046854 to 0.0046854
Heightened Def Con from 0.0046854 to 0.0046854
Heightened Def Con from 0.00468548 to 0.00468548
Heightened Def Con from 0.00468548 to 0.00468548
Heightened Def Con from 0.00468548 to 0.00468548
Heightened Def Con from 0.00471129 to 0.00471129
Heightened Def Con from 0.00471129 to 0.00471129
Heightened Def Con from 0.00471129 to 0.00471129
Heightened Def Con from 0.00471129 to 0.00471129
Heightened Def Con from 0.00471136 to 0.00471136
Heightened Def Con from 0.00471136 to 0.00471136
Heightened Def Con from 0.00471735 +to 0.00471735
Heightened Def Con from 0.00471735 to 0.00471735
Heightened Def Con from 0.00474239 to 0.00474239
Heightened Def Con from 0.00474247 to 0.00474247
Heightened Def Con from 0.00474919 to 0.00474919
Heightened Def Con from 0.00474927 to 0.00474927
Heightened Def Con from 0.00474927 to 0.00474927
Heightened Def Con from 0.00477345 ++++++++++++++++++++++++to 0.00477345
Heightened Def Con from 0.00477345 ++++++++++++++to 0.00477345
Heightened Def Con from 0.00477345 +++++to 0.00477345
Heightened Def Con from 0.00477353 +++++++++++++++++++++++++to 0.00477353
Heightened Def Con from 0.00477353 ++++++++++++++to 0.00477353
Heightened Def Con from 0.00477353 to 0.00477353
Heightened Def Con from 0.00478116 to 0.00478116
Heightened Def Con from 0.00478116 to 0.00478116
Heightened Def Con from 0.00478124 ++++++++++++++++++++++to 0.00478124
Heightened Def Con from 0.00478124 ++++++++++++to 0.00478124
Heightened Def Con from 0.00478124 +++++++++++to 0.00478124
Heightened Def Con from 0.00478124 ++++++++to 0.00478124
Heightened Def Con from 0.00478124 to 0.00478124
Heightened Def Con from 0.00478124 to 0.00478124
Heightened Def Con from 0.00480455 to 0.00480455
Heightened Def Con from 0.00481316 to 0.00481316
Heightened Def Con from 0.00481316 +to 0.00481316
Heightened Def Con from 0.00481324 to 0.00481325
Heightened Def Con from 0.00483553 to 0.00483553
Heightened Def Con from 0.00484528 ++++++++++++++++++++++++to 0.00484528
Heightened Def Con from 0.00484528 to 0.00484528
Heightened Def Con from 0.00484528 to 0.00484528
Heightened Def Con from 0.00484528 to 0.00484528
Heightened Def Con from 0.00485605 to 0.00485605
Heightened Def Con from 0.00486641 ++++++++++++++++++++++++to 0.00486641
Heightened Def Con from 0.00486641 ++++++++++++++to 0.00486641
Heightened Def Con from 0.00486641 +++++to 0.00486642
Heightened Def Con from 0.00486649 ++++++++++++++++++++++++to 0.00486649
Heightened Def Con from 0.00486649 ++++++++++++++to 0.00486649
Heightened Def Con from 0.00486649 ++++++++++++++to 0.0048665
Heightened Def Con from 0.0048665 ++++++to 0.0048665
Heightened Def Con from 0.0048665 to 0.0048665
Heightened Def Con from 0.00487727 ++++++++++++++++++++++++to 0.00487727
Heightened Def Con from 0.00487727 +++++++to 0.00487727
Heightened Def Con from 0.00489735 ++++++++++++++++++++++++to 0.00489735
Heightened Def Con from 0.00489735 ++++++++++++++to 0.00489735
Heightened Def Con from 0.00489735 ++++++to 0.00489735
Heightened Def Con from 0.00489742 ++++++++++++++++++++++++to 0.00489742
Heightened Def Con from 0.00489742 ++++++++++++++to 0.00489742
Heightened Def Con from 0.00489742 ++++++++++++++to 0.00489743
Heightened Def Con from 0.00489743 ++++++to 0.00489743
Heightened Def Con from 0.00489743 to 0.00489743
Heightened Def Con from 0.00490937 to 0.00490937
Heightened Def Con from 0.00490945 ++++++++++++++++++++++++to 0.00490945
Heightened Def Con from 0.00490945 to 0.00490945
Heightened Def Con from 0.00490945 to 0.00490945
Heightened Def Con from 0.00490945 to 0.00490945
Heightened Def Con from 0.00490945 to 0.00490945
Heightened Def Con from 0.00492826 ++++++++++++++++++++++++to 0.00492826
Heightened Def Con from 0.00492826 ++++++++++++++to 0.00492826
Heightened Def Con from 0.00492826 ++++++to 0.00492827
Heightened Def Con from 0.00492834 to 0.00492834
Heightened Def Con from 0.00492834 to 0.00492834
Heightened Def Con from 0.00494148 +to 0.00494148
Heightened Def Con from 0.00494156 ++++++++++++++++++++++++to 0.00494156
Heightened Def Con from 0.00494156 to 0.00494156
Heightened Def Con from 0.00494156 to 0.00494156
Heightened Def Con from 0.00494156 to 0.00494156
Heightened Def Con from 0.00495917 to 0.00495917
Heightened Def Con from 0.00495924 +++++++++++++++++++++++to 0.00495924
Heightened Def Con from 0.00495924 +++++++++++++to 0.00495924
Heightened Def Con from 0.00495924 ++++++++++++to 0.00495924
Heightened Def Con from 0.00495924 ++++++++++to 0.00495924
Heightened Def Con from 0.00495924 to 0.00495924
Heightened Def Con from 0.0049736 +to 0.0049736
Heightened Def Con from 0.0049736 to 0.0049736
Heightened Def Con from 0.0049736 to 0.0049736
Heightened Def Con from 0.00497369 to 0.00497369
Heightened Def Con from 0.0049822 to 0.0049822
Heightened Def Con from 0.00499006 to 0.00499006
Heightened Def Con from 0.00499006 +to 0.00499006
Heightened Def Con from 0.00499014 to 0.00499014
Heightened Def Con from 0.00499014 to 0.00499014

Date: Thu Nov 04 17:53:24 2021
Total elapsed time: 48.609 seconds.

tnom = 27
temp = 27
method = modified trap
totiter = 1494011
traniter = 1493975
tranpoints = 221255
accept = 105952
rejected = 123433
matrix size = 312
fillins = 305
solver = Normal
Matrix Compiler1: 26.11 KB object code size  30.4/14.5/[5.4]
Matrix Compiler2: 28.06 KB object code size  11.0/16.8/[8.8]

