Circuit: * Z:\home\niels\Desktop\Uni_Notes\Tri 2\ECEN405\Class-D_Amplifier\spice_sim\SPWM_Generator\SPWM_Generator.asc

Instance "m:u2:6": Length shorter than recommended for a level 2 MOSFET.
Instance "m:u2:5": Length shorter than recommended for a level 2 MOSFET.
Instance "m:u2:4": Length shorter than recommended for a level 2 MOSFET.
Instance "m:u2:3": Length shorter than recommended for a level 2 MOSFET.
Instance "m:u2:2": Length shorter than recommended for a level 2 MOSFET.
Instance "m:u2:1": Length shorter than recommended for a level 2 MOSFET.
Instance "m:u1:6": Length shorter than recommended for a level 2 MOSFET.
Instance "m:u1:5": Length shorter than recommended for a level 2 MOSFET.
Instance "m:u1:4": Length shorter than recommended for a level 2 MOSFET.
Instance "m:u1:3": Length shorter than recommended for a level 2 MOSFET.
Instance "m:u1:2": Length shorter than recommended for a level 2 MOSFET.
Instance "m:u1:1": Length shorter than recommended for a level 2 MOSFET.
Direct Newton iteration for .op point succeeded.

Date: Wed Aug 04 22:40:22 2021
Total elapsed time: 12.846 seconds.

tnom = 27
temp = 27
method = modified trap
totiter = 583394
traniter = 583364
tranpoints = 178978
accept = 126560
rejected = 52418
matrix size = 102
fillins = 32
solver = Normal
Thread vector: 22.9/13.3[3] 4.5/6.3[1] 5.4/4.0[3] 0.6/1.8[1]  2592/500
Matrix Compiler1: 6.83 KB object code size  2.0/1.1/[0.5]
Matrix Compiler2: 9.92 KB object code size  1.2/1.6/[0.6]

