Circuit: * Z:\home\niels\Desktop\Uni_Notes\Tri 2\ECEN405\Class-D_Amplifier\spice_sim\SPWM_Generator\SPWM_Generator.asc

u1:c_cc3: both pins shorted together -- ignoring.
u2:c_cc3: both pins shorted together -- ignoring.
WARNING: Node NC_01 is floating.
WARNING: Node NC_02 is floating.

WARNING: Less than two connections to node NC_01.  This node is used by R6.
WARNING: Less than two connections to node NC_02.  This node is used by R5.
Direct Newton iteration for .op point succeeded.
Heightened Def Con from 1.34716e-005 ++++++++++++++++++++++++to 1.34718e-005
Heightened Def Con from 1.34718e-005 +++++++++++++to 1.34733e-005
Heightened Def Con from 1.34733e-005 +++++++++to 1.34733e-005
Heightened Def Con from 1.34733e-005 to 1.34733e-005
Heightened Def Con from 1.34733e-005 to 1.34733e-005
Heightened Def Con from 1.34733e-005 to 1.34773e-005
Heightened Def Con from 2.0204e-005 to 2.0204e-005
Heightened Def Con from 2.0204e-005 to 2.0204e-005
Heightened Def Con from 2.02284e-005 to 2.02295e-005
Heightened Def Con from 3.08515e-005 to 3.08515e-005
Heightened Def Con from 3.08765e-005 to 3.08765e-005
Heightened Def Con from 3.08765e-005 to 3.08776e-005
Heightened Def Con from 4.00213e-005 to 4.00213e-005
Heightened Def Con from 4.00213e-005 to 4.00224e-005
Heightened Def Con from 5.11347e-005 to 5.11347e-005
Heightened Def Con from 5.11347e-005 to 5.11358e-005
Heightened Def Con from 5.11597e-005 to 5.11597e-005
Heightened Def Con from 5.11597e-005 to 5.11609e-005
Heightened Def Con from 5.97918e-005 to 5.97918e-005
Heightened Def Con from 5.98162e-005 ++++++++++++++++++++++++++to 5.98173e-005
Heightened Def Con from 5.98173e-005 ++++++++++++++++++++to 5.98173e-005
Heightened Def Con from 5.98173e-005 +++++++++++++++++to 5.98173e-005
Heightened Def Con from 5.98173e-005 +++++++++++++++++to 5.98173e-005
Heightened Def Con from 5.98173e-005 ++++++++++++++++to 5.98173e-005
Heightened Def Con from 5.98173e-005 +++++++++++++to 5.98173e-005
Heightened Def Con from 5.98173e-005 ++++++++++++to 5.98173e-005
Heightened Def Con from 5.98173e-005 to 5.98173e-005
Heightened Def Con from 5.98173e-005 to 5.98173e-005
Heightened Def Con from 5.98173e-005 to 5.98173e-005
Heightened Def Con from 5.98173e-005 to 5.98173e-005
Heightened Def Con from 5.98173e-005 to 5.98186e-005
Heightened Def Con from 7.14175e-005 to 7.14175e-005
Heightened Def Con from 7.14175e-005 to 7.14186e-005
Heightened Def Con from 7.14425e-005 to 7.14437e-005
Heightened Def Con from 7.95908e-005 ++++++++++++++++++++++++++to 7.95908e-005
Heightened Def Con from 7.95908e-005 to 7.9591e-005
Heightened Def Con from 9.16943e-005 to 9.16945e-005
Heightened Def Con from 9.17194e-005 to 9.17194e-005
Heightened Def Con from 9.93899e-005 +++++++++++++++++++++++to 9.93901e-005
Heightened Def Con from 9.93901e-005 ++++++++++++to 9.93916e-005
Heightened Def Con from 9.93916e-005 to 9.93929e-005
Heightened Def Con from 9.9413e-005 ++++++++++++++++++++++++++to 9.94142e-005
Heightened Def Con from 9.94142e-005 ++++++++++++++++++++to 9.94142e-005
Heightened Def Con from 9.94142e-005 +++++++++++++++++to 9.94142e-005
Heightened Def Con from 9.94142e-005 +++++++++++++++to 9.94142e-005
Heightened Def Con from 9.94142e-005 ++++++++++++++to 9.94142e-005
Heightened Def Con from 9.94142e-005 to 9.94142e-005
Heightened Def Con from 9.94142e-005 to 9.94142e-005
Heightened Def Con from 9.94142e-005 to 9.94142e-005
Heightened Def Con from 9.94162e-005 +to 9.94162e-005
Heightened Def Con from 9.94162e-005 to 9.94192e-005
Heightened Def Con from 0.000111966 to 0.000111967
Heightened Def Con from 0.000111991 +to 0.000111991
Heightened Def Con from 0.000119195 to 0.000119195
Heightened Def Con from 0.000119195 to 0.000119195
Heightened Def Con from 0.000119195 ++to 0.000119195
Heightened Def Con from 0.000119195 to 0.000119195
Heightened Def Con from 0.000119219 ++++++++++++++++++++++++++to 0.000119219
Heightened Def Con from 0.000119219 ++++++++++++++++++to 0.000119219
Heightened Def Con from 0.000119219 +++++++++++++++++to 0.000119219
Heightened Def Con from 0.000119219 +++++++++++++++++to 0.000119219
Heightened Def Con from 0.000119219 +++++++++++++++++to 0.000119219
Heightened Def Con from 0.000119219 +++++++++++++++++to 0.000119219
Heightened Def Con from 0.000119219 ++++++++++++++++to 0.000119219
Heightened Def Con from 0.000119219 +++++++++to 0.000119219
Heightened Def Con from 0.000119219 to 0.000119219
Heightened Def Con from 0.000119219 to 0.000119219
Heightened Def Con from 0.000119219 to 0.00011922
Heightened Def Con from 0.000132232 to 0.000132232
Heightened Def Con from 0.000132232 to 0.000132233
Heightened Def Con from 0.000132257 to 0.00013226
Heightened Def Con from 0.00013903 ++++++++++++++++++++++++++to 0.00013903
Heightened Def Con from 0.00013903 ++++++++++++++++++to 0.00013903
Heightened Def Con from 0.00013903 +++++++++++++++++to 0.00013903
Heightened Def Con from 0.00013903 +++++++++++++to 0.00013903
Heightened Def Con from 0.00013903 ++++++++to 0.00013903
Heightened Def Con from 0.00013903 to 0.00013903
Heightened Def Con from 0.00013903 to 0.00013903
Heightened Def Con from 0.00013903 +++++++++++++++++++++++to 0.00013903
Heightened Def Con from 0.00013903 +++++++++++++to 0.000139032
Heightened Def Con from 0.000139032 +++++++++to 0.000139032
Heightened Def Con from 0.000158822 to 0.000158822
Heightened Def Con from 0.000158846 to 0.000158846
Heightened Def Con from 0.000158846 to 0.000158848
Heightened Def Con from 0.000172746 to 0.000172747
Heightened Def Con from 0.000172771 +++++++++++++++++++++++++to 0.000172777
Heightened Def Con from 0.000172777 +++++++++++++++to 0.000172778
Heightened Def Con from 0.000172778 +++++++++++++to 0.000172778
Heightened Def Con from 0.000172778 +++++++++++++to 0.000172778
Heightened Def Con from 0.000172778 +++++++++++++to 0.000172778
Heightened Def Con from 0.000172778 ++++++++++++to 0.000172778
Heightened Def Con from 0.000172778 to 0.000172779
Heightened Def Con from 0.000178678 to 0.000178678
Heightened Def Con from 0.000178678 ++++++++++++++++++++++++to 0.000178679
Heightened Def Con from 0.000178679 +++++++++++++to 0.00017868
Heightened Def Con from 0.00017868 ++++++++++to 0.00017868
Heightened Def Con from 0.00017868 ++++++++to 0.000178681
Heightened Def Con from 0.000192998 to 0.000192998
Heightened Def Con from 0.000193023 to 0.000193024
Heightened Def Con from 0.000198486 to 0.000198486
Heightened Def Con from 0.000198511 ++++++++++++++++++++++++to 0.000198512
Heightened Def Con from 0.000198512 +++++++++++++to 0.000198513
Heightened Def Con from 0.000198513 +++++++++to 0.000198513
Heightened Def Con from 0.000198513 to 0.000198513
Heightened Def Con from 0.000213259 ++++++++++++++++++++++++to 0.000213259
Heightened Def Con from 0.000213259 +++++++++++++to 0.000213261
Heightened Def Con from 0.000213261 +++++++++to 0.000213261
Heightened Def Con from 0.000213261 to 0.000213261
Heightened Def Con from 0.000218329 +++++++++++++++++++++++to 0.000218329
Heightened Def Con from 0.000218329 +++++++++++to 0.00021833
Heightened Def Con from 0.00021833 to 0.000218332
Heightened Def Con from 0.000218352 ++++++++++++++++++++++++++to 0.000218352
Heightened Def Con from 0.000218352 to 0.000218354
Heightened Def Con from 0.00023346 to 0.00023346
Heightened Def Con from 0.00023346 to 0.000233461
Heightened Def Con from 0.000233485 ++++++++++++++++++++++++to 0.000233485
Heightened Def Con from 0.000233485 +++++++++++++to 0.000233487
Heightened Def Con from 0.000233487 +++++++++to 0.000233487
Heightened Def Con from 0.000233487 to 0.000233488
Heightened Def Con from 0.000238203 to 0.000238203
Heightened Def Con from 0.000238203 to 0.000238204
Heightened Def Con from 0.000253674 to 0.000253674
Heightened Def Con from 0.000253674 to 0.000253674
Heightened Def Con from 0.000253674 to 0.000253675
Heightened Def Con from 0.000253699 to 0.000253699
Heightened Def Con from 0.000253699 to 0.000253699
Heightened Def Con from 0.000253699 to 0.000253699
Heightened Def Con from 0.000253699 to 0.0002537
Heightened Def Con from 0.00025804 +++++++++++++++++++++++to 0.00025804
Heightened Def Con from 0.00025804 +++++++++++to 0.000258042
Heightened Def Con from 0.000258042 to 0.000258042
Heightened Def Con from 0.000258064 +to 0.000258064
Heightened Def Con from 0.000258064 to 0.000258065
Heightened Def Con from 0.000273878 +++++++++++++++++++++++++to 0.000273883
Heightened Def Con from 0.000273883 +++++++++++++++to 0.000273884
Heightened Def Con from 0.000273884 ++++++++++++to 0.000273884
Heightened Def Con from 0.000273884 +++++++++++to 0.000273884
Heightened Def Con from 0.000273884 +++++++++++to 0.000273884
Heightened Def Con from 0.000273884 to 0.000273884
Heightened Def Con from 0.000273884 to 0.000273884
Heightened Def Con from 0.000273884 to 0.000273888
Heightened Def Con from 0.000277917 to 0.000277917
Heightened Def Con from 0.000277917 to 0.000277917
Heightened Def Con from 0.000277917 to 0.000277918
Heightened Def Con from 0.000277942 ++++++++++++++++++++++++to 0.000277943
Heightened Def Con from 0.000277943 +++++++++++++to 0.000277944
Heightened Def Con from 0.000277944 ++++++++++to 0.000277944
Heightened Def Con from 0.000277944 +++++++to 0.000277944
Heightened Def Con from 0.000294076 ++++++++++++++++++++++++to 0.000294077
Heightened Def Con from 0.000294077 +++++++++++to 0.000294078
Heightened Def Con from 0.000294078 to 0.000294079
Heightened Def Con from 0.000294101 +to 0.000294101
Heightened Def Con from 0.000297803 +to 0.000297803
Heightened Def Con from 0.000297803 to 0.000297806
Heightened Def Con from 0.000314254 +++++++++++++++++++++++++to 0.000314259
Heightened Def Con from 0.000314259 +++++++++++++++to 0.00031426
Heightened Def Con from 0.00031426 ++++++++++++to 0.00031426
Heightened Def Con from 0.00031426 ++++++++++++to 0.00031426
Heightened Def Con from 0.00031426 to 0.000314261
Heightened Def Con from 0.000317703 +++++++++++++++++++++++to 0.000317703
Heightened Def Con from 0.000317703 +++++++++++to 0.000317705
Heightened Def Con from 0.000317705 to 0.000317706
Heightened Def Con from 0.000317727 to 0.000317728
Heightened Def Con from 0.000334426 to 0.000334426
Heightened Def Con from 0.000334426 to 0.000334427
Heightened Def Con from 0.000334451 to 0.000334451
Heightened Def Con from 0.000337611 +++++++++++++++++++++++to 0.000337611
Heightened Def Con from 0.000337611 +++++++++++to 0.000337612
Heightened Def Con from 0.000337612 to 0.000337614
Heightened Def Con from 0.000337635 +to 0.000337635
Heightened Def Con from 0.000337635 to 0.000337635
Heightened Def Con from 0.000337635 to 0.000337636
Heightened Def Con from 0.000354575 ++++++++++++++++++++++++to 0.000354575
Heightened Def Con from 0.000354575 +++++++++++to 0.000354576
Heightened Def Con from 0.0003546 to 0.0003546
Heightened Def Con from 0.0003546 to 0.0003546
Heightened Def Con from 0.0003546 to 0.000354601
Heightened Def Con from 0.000357532 to 0.000357532
Heightened Def Con from 0.000357532 +++++++++++++++++++++++to 0.000357532
Heightened Def Con from 0.000357532 +++++++++++to 0.000357534
Heightened Def Con from 0.000357534 to 0.000357535
Heightened Def Con from 0.000357556 to 0.000357556
Heightened Def Con from 0.000357556 to 0.000357559
Heightened Def Con from 0.000374714 +to 0.000374714
Heightened Def Con from 0.000374739 ++++++++++++++++++++++++to 0.000374739
Heightened Def Con from 0.000374739 +++++++++++++to 0.000374741
Heightened Def Con from 0.000374741 +++++++++to 0.000374741
Heightened Def Con from 0.000374741 to 0.000374741
Heightened Def Con from 0.000374741 to 0.000374742
Heightened Def Con from 0.000377494 ++++++++++++++++++++++++to 0.000377494
Heightened Def Con from 0.000377494 ++++++++++++to 0.000377494
Heightened Def Con from 0.000377494 +++++++++++to 0.000377494
Heightened Def Con from 0.000377494 +++++++++++to 0.000377494
Heightened Def Con from 0.000377494 +++++++++++to 0.000377494
Heightened Def Con from 0.000377494 +++++++++++to 0.000377494
Heightened Def Con from 0.000377494 +++++++++++to 0.000377494
Heightened Def Con from 0.000377494 to 0.000377494
Heightened Def Con from 0.000394836 to 0.000394839
Heightened Def Con from 0.000394861 to 0.000394861
Heightened Def Con from 0.000394861 to 0.000394861
Heightened Def Con from 0.000394861 to 0.000394862
Heightened Def Con from 0.000397416 to 0.000397416
Heightened Def Con from 0.000397416 to 0.000397416
Heightened Def Con from 0.000397441 to 0.000397441
Heightened Def Con from 0.000397441 to 0.000397442
Heightened Def Con from 0.000414943 +++++++++++++++++++++++++to 0.000414948
Heightened Def Con from 0.000414948 +++++++++++++++to 0.000414949
Heightened Def Con from 0.000414949 ++++++++++++to 0.000414949
Heightened Def Con from 0.000414949 ++++++++++++to 0.000414949
Heightened Def Con from 0.000414949 to 0.00041495
Heightened Def Con from 0.000417387 +++++++++++++++++++++++to 0.000417387
Heightened Def Con from 0.000417387 +++++++++++to 0.000417388
Heightened Def Con from 0.000417388 to 0.00041739
Heightened Def Con from 0.000417411 +to 0.000417411
Heightened Def Con from 0.000417411 to 0.000417411
Heightened Def Con from 0.000435067 to 0.000435067
Heightened Def Con from 0.000435067 to 0.000435067
Heightened Def Con from 0.000435067 to 0.000435068
Heightened Def Con from 0.000437367 to 0.000437368
Heightened Def Con from 0.000437392 to 0.000437393
Heightened Def Con from 0.000455121 ++++++++++++++++++++++++to 0.000455121
Heightened Def Con from 0.000455121 +++++++++++to 0.000455122
Heightened Def Con from 0.000455122 to 0.000455123
Heightened Def Con from 0.000455145 to 0.000455145
Heightened Def Con from 0.000457363 to 0.000457363
Heightened Def Con from 0.000457388 +++++++++++++++++++++++to 0.000457389
Heightened Def Con from 0.000457389 +++++++++++++to 0.00045739
Heightened Def Con from 0.00045739 ++++++++++to 0.00045739
Heightened Def Con from 0.00045739 ++++++++to 0.00045739
Heightened Def Con from 0.00045739 to 0.00045739
Heightened Def Con from 0.000477373 to 0.000477373
Heightened Def Con from 0.000477373 to 0.000477374
Heightened Def Con from 0.000477398 +++++++++++++++++++++++to 0.000477398
Heightened Def Con from 0.000477398 to 0.000477398
Heightened Def Con from 0.000477398 to 0.000477399
Heightened Def Con from 0.00049523 ++++++++++++++++++++++++to 0.00049523
Heightened Def Con from 0.00049523 +++++++++++to 0.000495231
Heightened Def Con from 0.000495231 to 0.000495232
Heightened Def Con from 0.000495254 to 0.000495254
Heightened Def Con from 0.000497396 +to 0.000497396
Heightened Def Con from 0.000497396 to 0.000497398
Heightened Def Con from 0.00051526 to 0.000515261
Heightened Def Con from 0.000515285 to 0.000515286
Heightened Def Con from 0.000517438 +++++++++++++++++++++++to 0.000517438
Heightened Def Con from 0.000517438 +++++++++to 0.00051744
Heightened Def Con from 0.000535277 to 0.000535278
Heightened Def Con from 0.000535301 to 0.000535302
Heightened Def Con from 0.000537495 to 0.000537495
Heightened Def Con from 0.000537495 to 0.000537495
Heightened Def Con from 0.000555276 to 0.000555277
Heightened Def Con from 0.000557567 +to 0.000557567
Heightened Def Con from 0.000557567 +++++++++++++++++++++++to 0.000557567
Heightened Def Con from 0.000557567 +++++++++++to 0.000557569
Heightened Def Con from 0.000557569 to 0.00055757
Heightened Def Con from 0.000557591 to 0.000557592
Heightened Def Con from 0.000575262 to 0.000575263
Heightened Def Con from 0.000577655 +++++++++++++++++++++++to 0.000577655
Heightened Def Con from 0.000577655 +++++++++++to 0.000577656
Heightened Def Con from 0.000577656 to 0.000577658
Heightened Def Con from 0.000577679 to 0.000577679
Heightened Def Con from 0.000577679 to 0.00057768
Heightened Def Con from 0.000595232 to 0.000595233
Heightened Def Con from 0.000595257 to 0.000595258
Heightened Def Con from 0.000597758 to 0.000597758
Heightened Def Con from 0.000597783 to 0.000597783
Heightened Def Con from 0.000615188 to 0.000615189
Heightened Def Con from 0.000615213 to 0.000615214
Heightened Def Con from 0.000617875 to 0.000617876
Heightened Def Con from 0.000635153 to 0.000635153
Heightened Def Con from 0.000635153 to 0.000635155
Heightened Def Con from 0.000638008 to 0.000638009
Heightened Def Con from 0.000655057 to 0.000655057
Heightened Def Con from 0.000655057 to 0.000655058
Heightened Def Con from 0.000655081 to 0.000655081
Heightened Def Con from 0.000655081 to 0.000655081
Heightened Def Con from 0.000655081 to 0.000655082
Heightened Def Con from 0.000658178 ++++++++++++++++++++++++to 0.000658179
Heightened Def Con from 0.000658179 +++++++++++++to 0.000658181
Heightened Def Con from 0.000658181 ++++++++++to 0.000658181
Heightened Def Con from 0.000658181 +++++++to 0.000658181
Heightened Def Con from 0.000674969 to 0.00067497
Heightened Def Con from 0.000674994 to 0.000674994
Heightened Def Con from 0.000678338 to 0.000678338
Heightened Def Con from 0.000678338 to 0.000678338
Heightened Def Con from 0.000678338 to 0.000678339
Heightened Def Con from 0.000694869 ++++++++++++++++++++++++to 0.000694869
Heightened Def Con from 0.000694869 +++++++++++to 0.00069487
Heightened Def Con from 0.00069487 to 0.000694872
Heightened Def Con from 0.000694892 ++++++++++++++++++++++++to 0.000694893
Heightened Def Con from 0.000694893 +++++++++++++to 0.000694894
Heightened Def Con from 0.000694894 +++++++++to 0.000694894
Heightened Def Con from 0.000694894 to 0.000694894
Heightened Def Con from 0.000698488 to 0.000698488
Heightened Def Con from 0.000698488 to 0.000698488
Heightened Def Con from 0.000698488 to 0.000698489
Heightened Def Con from 0.000698512 ++++++++++++++++++++++++to 0.000698514
Heightened Def Con from 0.000698514 +++++++++++++to 0.000698515
Heightened Def Con from 0.000698515 ++++++++++to 0.000698515
Heightened Def Con from 0.000698515 +++++++to 0.000698515
Heightened Def Con from 0.000698515 to 0.000698515
Heightened Def Con from 0.000714757 +++++++++++++++++++++++++to 0.000714762
Heightened Def Con from 0.000714762 +++++++++++++++to 0.000714763
Heightened Def Con from 0.000714763 ++++++++++++to 0.000714763
Heightened Def Con from 0.000714763 +++++++++++to 0.000714763
Heightened Def Con from 0.000714763 +++++++++++to 0.000714763
Heightened Def Con from 0.000714763 to 0.000714763
Heightened Def Con from 0.000714763 to 0.000714763
Heightened Def Con from 0.000714763 to 0.000714767
Heightened Def Con from 0.00071868 +++++++++++++++++++++++to 0.00071868
Heightened Def Con from 0.00071868 +++++++++++to 0.000718682
Heightened Def Con from 0.000718682 to 0.000718683
Heightened Def Con from 0.000718704 to 0.000718705
Heightened Def Con from 0.000734638 to 0.000734638
Heightened Def Con from 0.000734638 to 0.000734638
Heightened Def Con from 0.000734663 ++++++++++++++++++++++++to 0.000734663
Heightened Def Con from 0.000734663 +++++++++++++to 0.000734664
Heightened Def Con from 0.000734664 +++++++++to 0.000734664
Heightened Def Con from 0.000734664 to 0.000734664
Heightened Def Con from 0.000734664 to 0.000734666
Heightened Def Con from 0.000738879 to 0.000738879
Heightened Def Con from 0.000738879 to 0.000738879
Heightened Def Con from 0.000738879 to 0.000738881
Heightened Def Con from 0.000754504 to 0.000754507
Heightened Def Con from 0.000754529 +to 0.000754529
Heightened Def Con from 0.000754529 to 0.00075453
Heightened Def Con from 0.000759091 to 0.000759091
Heightened Def Con from 0.000759091 +to 0.000759091
Heightened Def Con from 0.000774359 to 0.00077436
Heightened Def Con from 0.000774384 to 0.000774384
Heightened Def Con from 0.000774384 to 0.000774385
Heightened Def Con from 0.000779313 to 0.000779313
Heightened Def Con from 0.000779313 to 0.000779313
Heightened Def Con from 0.000779313 to 0.000779313
Heightened Def Con from 0.000779313 to 0.000779313
Heightened Def Con from 0.000779313 to 0.000779314
Heightened Def Con from 0.000779338 to 0.000779338
Heightened Def Con from 0.000779338 to 0.000779338
Heightened Def Con from 0.000794204 to 0.000794205
Heightened Def Con from 0.000794229 to 0.000794229
Heightened Def Con from 0.000794229 to 0.00079423
Heightened Def Con from 0.000799545 to 0.000799545
Heightened Def Con from 0.00081404 to 0.000814041
Heightened Def Con from 0.000814064 to 0.000814066
Heightened Def Con from 0.000819786 to 0.000819786
Heightened Def Con from 0.000819811 ++++++++++++++++++++++++++to 0.000819811
Heightened Def Con from 0.000819811 to 0.000819812
Heightened Def Con from 0.000833864 +++++++++++++++++++++++++to 0.000833869
Heightened Def Con from 0.000833869 +++++++++++++++to 0.00083387
Heightened Def Con from 0.00083387 ++++++++++++to 0.00083387
Heightened Def Con from 0.00083387 +++++++++++to 0.00083387
Heightened Def Con from 0.00083387 +++++++++++to 0.00083387
Heightened Def Con from 0.00083387 to 0.00083387
Heightened Def Con from 0.00083387 to 0.00083387
Heightened Def Con from 0.00083387 to 0.00083387
Heightened Def Con from 0.000833871 to 0.000833871
Heightened Def Con from 0.000833871 to 0.000833872
Heightened Def Con from 0.000840064 to 0.000840064
Heightened Def Con from 0.000840064 to 0.000840064
Heightened Def Con from 0.000840064 to 0.000840065
Heightened Def Con from 0.000853713 +++++++++++++++++++++++++to 0.000853719
Heightened Def Con from 0.000853719 +++++++++++++++to 0.000853721
Heightened Def Con from 0.000853721 +++++++++++++to 0.000853721
Heightened Def Con from 0.000853721 +++++++++++++to 0.000853721
Heightened Def Con from 0.000853721 +++++++++++++to 0.000853721
Heightened Def Con from 0.000853721 ++++++++++++to 0.000853721
Heightened Def Con from 0.000853721 to 0.000853722
Heightened Def Con from 0.000860302 to 0.000860302
Heightened Def Con from 0.000860327 ++++++++++++++++++++++++to 0.000860328
Heightened Def Con from 0.000860328 +++++++++++++to 0.00086033
Heightened Def Con from 0.00086033 +++++++++to 0.00086033
Heightened Def Con from 0.00086033 to 0.000860331
Heightened Def Con from 0.000873508 to 0.00087351
Heightened Def Con from 0.000873533 +++++++++++++++++++++++++to 0.000873539
Heightened Def Con from 0.000873539 +++++++++++++++to 0.00087354
Heightened Def Con from 0.00087354 +++++++++++++to 0.00087354
Heightened Def Con from 0.00087354 +++++++++++++to 0.00087354
Heightened Def Con from 0.00087354 +++++++++++++to 0.00087354
Heightened Def Con from 0.00087354 ++++++++++++to 0.00087354
Heightened Def Con from 0.00087354 to 0.000873541
Heightened Def Con from 0.000880573 to 0.000880573
Heightened Def Con from 0.000880573 to 0.000880573
Heightened Def Con from 0.000893319 to 0.000893319
Heightened Def Con from 0.000893319 to 0.000893319
Heightened Def Con from 0.000893319 to 0.00089332
Heightened Def Con from 0.000893343 to 0.000893343
Heightened Def Con from 0.000893343 to 0.000893345
Heightened Def Con from 0.000900843 to 0.000900843
Heightened Def Con from 0.000900868 ++++to 0.000900868
Heightened Def Con from 0.000900868 to 0.000900869
Heightened Def Con from 0.000913146 to 0.000913146
Heightened Def Con from 0.000913146 to 0.000913147
Heightened Def Con from 0.000921118 to 0.000921118
Heightened Def Con from 0.000921143 ++++++++++++++++++++++++++to 0.000921144
Heightened Def Con from 0.000921144 ++++++++++++++++++++to 0.000921144
Heightened Def Con from 0.000921144 +++++++++++++++++to 0.000921144
Heightened Def Con from 0.000921144 ++++++++++++++++to 0.000921144
Heightened Def Con from 0.000921144 ++++++++++++++++to 0.000921144
Heightened Def Con from 0.000921144 +++++++++++++++to 0.000921144
Heightened Def Con from 0.000921144 +++++++++++++++to 0.000921144
Heightened Def Con from 0.000921144 to 0.000921144
Heightened Def Con from 0.000921144 +to 0.000921144
Heightened Def Con from 0.000921144 to 0.000921144
Heightened Def Con from 0.00093292 to 0.000932921
Heightened Def Con from 0.000932944 to 0.000932944
Heightened Def Con from 0.000932944 to 0.000932945
Heightened Def Con from 0.000941398 ++++++++++++++++++++++++++to 0.000941398
Heightened Def Con from 0.000941398 to 0.000941399
Heightened Def Con from 0.000952715 to 0.000952717
Heightened Def Con from 0.00095274 ++++++++++++++++++++++++to 0.00095274
Heightened Def Con from 0.00095274 +++++++++++to 0.00095274
Heightened Def Con from 0.00095274 ++++++++++to 0.00095274
Heightened Def Con from 0.00095274 ++++++++to 0.00095274
Heightened Def Con from 0.00095274 to 0.00095274
Heightened Def Con from 0.00095274 to 0.00095274
Heightened Def Con from 0.00095274 to 0.00095274
Heightened Def Con from 0.00095274 to 0.000952741
Heightened Def Con from 0.000961681 to 0.000961681
Heightened Def Con from 0.000961706 ++++++++++++++++++++++++++to 0.000961707
Heightened Def Con from 0.000961707 ++++++++++++++++++to 0.000961707
Heightened Def Con from 0.000961707 +++++++++++++++++to 0.000961707
Heightened Def Con from 0.000961707 ++++++++++++++++to 0.000961707
Heightened Def Con from 0.000961707 +++++++++++++++to 0.000961707
Heightened Def Con from 0.000961707 ++++++++++++++to 0.000961707
Heightened Def Con from 0.000961707 +++++++++++++to 0.000961707
Heightened Def Con from 0.000961707 to 0.000961707
Heightened Def Con from 0.000961707 to 0.000961707
Heightened Def Con from 0.000961707 to 0.000961707
Heightened Def Con from 0.000961707 to 0.000961708
Heightened Def Con from 0.00097251 ++++++++++++++++++++++++to 0.00097251
Heightened Def Con from 0.00097251 ++++++++++++to 0.000972511
Heightened Def Con from 0.000972511 to 0.000972513
Heightened Def Con from 0.000972533 to 0.000972533
Heightened Def Con from 0.000972533 to 0.000972536
Heightened Def Con from 0.000981991 ++++++++++++++++++++++++++to 0.000981992
Heightened Def Con from 0.000981992 ++++++++++++++++++to 0.000981992
Heightened Def Con from 0.000981992 +++++++++++++++++to 0.000981992
Heightened Def Con from 0.000981992 +++++++++++++++++to 0.000981992
Heightened Def Con from 0.000981992 ++++++++++++++++to 0.000981992
Heightened Def Con from 0.000981992 ++++++++++++++to 0.000981992
Heightened Def Con from 0.000981992 to 0.000981992
Heightened Def Con from 0.000981992 ++to 0.000981992
Heightened Def Con from 0.000981992 to 0.000981992
Heightened Def Con from 0.000981992 +++to 0.000981992
Heightened Def Con from 0.000981992 to 0.000981992
Heightened Def Con from 0.000981992 to 0.000981992
Heightened Def Con from 0.000981992 to 0.000981992
Heightened Def Con from 0.000981992 to 0.000981993
Heightened Def Con from 0.000992302 to 0.000992302
Heightened Def Con from 0.000992327 to 0.000992328
Heightened Def Con from 0.00100225 ++++++++++++++++++++++++++to 0.00100225
Heightened Def Con from 0.00100225 to 0.00100225
Heightened Def Con from 0.00100228 ++++++++++++++++++++++++++to 0.00100228
Heightened Def Con from 0.00100228 ++++++++++++++++++to 0.00100228
Heightened Def Con from 0.00100228 +++++++++++++++++to 0.00100228
Heightened Def Con from 0.00100228 +++++++++++++++++to 0.00100228
Heightened Def Con from 0.00100228 +++++++++++++++++to 0.00100228
Heightened Def Con from 0.00100228 +++++++++++++++++to 0.00100228
Heightened Def Con from 0.00100228 +++++++++++++++++to 0.00100228
Heightened Def Con from 0.00100228 +++++++++++++++++to 0.00100228
Heightened Def Con from 0.00100228 ++++++++++++++++to 0.00100228
Heightened Def Con from 0.00100228 ++++++++++++++to 0.00100228
Heightened Def Con from 0.00100228 ++++++++++++to 0.00100228
Heightened Def Con from 0.00100228 to 0.00100228
Heightened Def Con from 0.00100228 to 0.00100228
Heightened Def Con from 0.00100228 to 0.00100228
Heightened Def Con from 0.00100228 to 0.00100228
Heightened Def Con from 0.00101209 to 0.0010121
Heightened Def Con from 0.00101212 +++++++++++++++++++++++++to 0.00101213
Heightened Def Con from 0.00101213 +++++++++++++++to 0.00101213
Heightened Def Con from 0.00101213 +++++++++++++to 0.00101213
Heightened Def Con from 0.00101213 +++++++++++++to 0.00101213
Heightened Def Con from 0.00101213 ++++++++++++to 0.00101213
Heightened Def Con from 0.00101213 to 0.00101213
Heightened Def Con from 0.00103189 +++++++++++++++++++++++to 0.00103189
Heightened Def Con from 0.00103189 +++++++++++to 0.00103189
Heightened Def Con from 0.00103189 to 0.00103189
Heightened Def Con from 0.00103189 to 0.00103189
Heightened Def Con from 0.00103192 +++++++++++++++++++++++++to 0.00103192
Heightened Def Con from 0.00103192 +++++++++++++++to 0.00103192
Heightened Def Con from 0.00103192 +++++++++++++to 0.00103192
Heightened Def Con from 0.00103192 +++++++++++++to 0.00103192
Heightened Def Con from 0.00103192 ++++++++++++to 0.00103192
Heightened Def Con from 0.00103192 to 0.00103192
Heightened Def Con from 0.00104283 ++++++++++++++++++++++++++to 0.00104283
Heightened Def Con from 0.00104283 to 0.00104284
Heightened Def Con from 0.00105169 +++++++++++++++++++++++++to 0.0010517
Heightened Def Con from 0.0010517 +++++++++++++++to 0.0010517
Heightened Def Con from 0.0010517 ++++++++++++to 0.0010517
Heightened Def Con from 0.0010517 ++++++++++++to 0.0010517
Heightened Def Con from 0.0010517 to 0.0010517
Heightened Def Con from 0.0010517 to 0.0010517
Heightened Def Con from 0.0010517 to 0.0010517
Heightened Def Con from 0.0010517 to 0.0010517
Heightened Def Con from 0.00106312 to 0.00106312
Heightened Def Con from 0.00106312 to 0.00106312
Heightened Def Con from 0.00106315 to 0.00106315
Heightened Def Con from 0.00106315 to 0.00106315
Heightened Def Con from 0.00107149 to 0.00107149
Heightened Def Con from 0.0010834 to 0.0010834
Heightened Def Con from 0.0010834 to 0.0010834
Heightened Def Con from 0.0010834 to 0.0010834
Heightened Def Con from 0.00108343 to 0.00108343
Heightened Def Con from 0.00108746 to 0.00108746
Heightened Def Con from 0.00109129 to 0.00109129
Heightened Def Con from 0.00109132 +++++++++++++++++++++++to 0.00109132
Heightened Def Con from 0.00109132 +++++++++++++to 0.00109132
Heightened Def Con from 0.00109132 +++++++++to 0.00109132
Heightened Def Con from 0.00109132 to 0.00109132
Heightened Def Con from 0.00110367 to 0.00110367
Heightened Def Con from 0.00110367 ++++++++++++++++++++++++++to 0.00110368
Heightened Def Con from 0.00110368 +++++++++++++++++to 0.00110368
Heightened Def Con from 0.00110368 to 0.00110368
Heightened Def Con from 0.0011037 to 0.0011037
Heightened Def Con from 0.0011111 to 0.0011111
Heightened Def Con from 0.0011111 to 0.0011111
Heightened Def Con from 0.00111112 to 0.00111112
Heightened Def Con from 0.00112395 to 0.00112395
Heightened Def Con from 0.00112395 to 0.00112395
Heightened Def Con from 0.00112397 to 0.00112397
Heightened Def Con from 0.00113091 +++++++++++++++++++++++++to 0.00113091
Heightened Def Con from 0.00113091 +++++++++++to 0.00113091
Heightened Def Con from 0.00113091 to 0.00113091
Heightened Def Con from 0.00113091 to 0.00113091
Heightened Def Con from 0.00113091 to 0.00113091
Heightened Def Con from 0.00113093 to 0.00113093
Heightened Def Con from 0.00113093 to 0.00113093
Heightened Def Con from 0.00113093 +to 0.00113093
Heightened Def Con from 0.00114423 to 0.00114423
Heightened Def Con from 0.00114423 to 0.00114423
Heightened Def Con from 0.00115072 to 0.00115072
Heightened Def Con from 0.00115074 to 0.00115075
Heightened Def Con from 0.00116447 ++++++++++++++++++++++++++to 0.00116447
Heightened Def Con from 0.00116447 to 0.00116447
Heightened Def Con from 0.00116449 to 0.00116449
Heightened Def Con from 0.00117054 to 0.00117054
Heightened Def Con from 0.00117057 +++++++++++++++++++++++++to 0.00117057
Heightened Def Con from 0.00117057 ++++++++++++++to 0.00117058
Heightened Def Con from 0.00117058 +++++++++++to 0.00117058
Heightened Def Con from 0.00117058 ++++++++++to 0.00117058
Heightened Def Con from 0.00117058 to 0.00117058
Heightened Def Con from 0.00118472 to 0.00118472
Heightened Def Con from 0.00118475 ++++++++++++++++++++++++++to 0.00118475
Heightened Def Con from 0.00118475 to 0.00118475
Heightened Def Con from 0.0011904 +++++++++++++++++++++++++to 0.00119041
Heightened Def Con from 0.00119041 ++++++++++++++to 0.00119041
Heightened Def Con from 0.00119041 +++++++++++to 0.00119041
Heightened Def Con from 0.00119041 ++++++++++to 0.00119041
Heightened Def Con from 0.00119041 to 0.00119041
Heightened Def Con from 0.00119041 to 0.00119041
Heightened Def Con from 0.00120497 to 0.00120497
Heightened Def Con from 0.00120499 to 0.00120499
Heightened Def Con from 0.00121022 +++++++++++++++++++++++to 0.00121022
Heightened Def Con from 0.00121022 ++++++++++++to 0.00121022
Heightened Def Con from 0.00121022 to 0.00121022
Heightened Def Con from 0.00121024 to 0.00121025
Heightened Def Con from 0.0012252 to 0.0012252
Heightened Def Con from 0.0012252 ++++++++++++++++++++++++++to 0.0012252
Heightened Def Con from 0.0012252 +++++++++to 0.0012252
Heightened Def Con from 0.0012252 to 0.0012252
Heightened Def Con from 0.00122522 to 0.00122522
Heightened Def Con from 0.00122765 to 0.00122765
Heightened Def Con from 0.00123007 ++++++++++++++++++++++++++to 0.00123007
Heightened Def Con from 0.00123007 ++++++++++to 0.00123007
Heightened Def Con from 0.00123007 to 0.00123007
Heightened Def Con from 0.00123009 to 0.00123009
Heightened Def Con from 0.00124542 to 0.00124542
Heightened Def Con from 0.00124542 to 0.00124542
Heightened Def Con from 0.00124542 to 0.00124542
Heightened Def Con from 0.00124544 to 0.00124544
Heightened Def Con from 0.00124992 to 0.00124992
Heightened Def Con from 0.00124992 to 0.00124992
Heightened Def Con from 0.00124992 to 0.00124992
Heightened Def Con from 0.00124995 ++++++++++++++++++++++++++to 0.00124995
Heightened Def Con from 0.00124995 to 0.00124995
Heightened Def Con from 0.00124995 to 0.00124995
Heightened Def Con from 0.00126562 ++++++++++++++++++++++++++to 0.00126562
Heightened Def Con from 0.00126562 ++++++++++to 0.00126563
Heightened Def Con from 0.00126563 to 0.00126563
Heightened Def Con from 0.00126565 to 0.00126565
Heightened Def Con from 0.00126565 to 0.00126565
Heightened Def Con from 0.00126979 ++++++++++++++++++++++++++to 0.00126979
Heightened Def Con from 0.00126979 ++++++++++to 0.00126979
Heightened Def Con from 0.00126979 to 0.00126979
Heightened Def Con from 0.00128582 to 0.00128582
Heightened Def Con from 0.00128584 ++++++++++++++++++++++++++to 0.00128585
Heightened Def Con from 0.00128585 +++++++++++++to 0.00128585
Heightened Def Con from 0.00128585 +++++++++to 0.00128585
Heightened Def Con from 0.00128585 to 0.00128585
Heightened Def Con from 0.00128585 to 0.00128585
Heightened Def Con from 0.00128967 to 0.00128967
Heightened Def Con from 0.00128967 to 0.00128967
Heightened Def Con from 0.00128969 to 0.00128969
Heightened Def Con from 0.00128969 to 0.00128969
Heightened Def Con from 0.00128969 to 0.00128969
Heightened Def Con from 0.001306 to 0.001306
Heightened Def Con from 0.001306 to 0.001306
Heightened Def Con from 0.00130603 ++++++++++++++++++++++++++to 0.00130603
Heightened Def Con from 0.00130603 +++++++++++++to 0.00130603
Heightened Def Con from 0.00130603 +++++++++to 0.00130603
Heightened Def Con from 0.00130603 to 0.00130603
Heightened Def Con from 0.00130956 to 0.00130956
Heightened Def Con from 0.00130958 to 0.00130958
Heightened Def Con from 0.00130958 to 0.00130958
Heightened Def Con from 0.00130958 to 0.00130958
Heightened Def Con from 0.00132617 to 0.00132617
Heightened Def Con from 0.00132617 to 0.00132618
Heightened Def Con from 0.0013262 to 0.0013262
Heightened Def Con from 0.00132946 +++++++++++++++++++++++to 0.00132946
Heightened Def Con from 0.00132946 ++++++++++++to 0.00132946
Heightened Def Con from 0.00132946 to 0.00132946
Heightened Def Con from 0.00132948 ++++++++++++++++++++++++to 0.00132948
Heightened Def Con from 0.00132948 +++++++++++++to 0.00132949
Heightened Def Con from 0.00132949 +++++++++to 0.00132949
Heightened Def Con from 0.00132949 to 0.00132949
Heightened Def Con from 0.00132949 to 0.00132949
Heightened Def Con from 0.00134633 to 0.00134633
Heightened Def Con from 0.00134633 +to 0.00134633
Heightened Def Con from 0.00134636 to 0.00134636
Heightened Def Con from 0.00134636 to 0.00134636
Heightened Def Con from 0.00134636 to 0.00134636
Heightened Def Con from 0.00134938 to 0.00134938
Heightened Def Con from 0.00134938 to 0.00134938
Heightened Def Con from 0.0013494 to 0.0013494
Heightened Def Con from 0.00136647 to 0.00136647
Heightened Def Con from 0.0013665 to 0.0013665
Heightened Def Con from 0.0013665 to 0.0013665
Heightened Def Con from 0.00136931 to 0.00136931
Heightened Def Con from 0.00136931 to 0.00136931
Heightened Def Con from 0.0013866 ++++++++++++++++++++++++++to 0.0013866
Heightened Def Con from 0.0013866 +++++++++to 0.00138661
Heightened Def Con from 0.00138925 +++++++++++++++++++++++to 0.00138925
Heightened Def Con from 0.00138925 ++++++++++++to 0.00138926
Heightened Def Con from 0.00138926 to 0.00138926
Heightened Def Con from 0.00138928 to 0.00138928
Heightened Def Con from 0.00138928 to 0.00138928
Heightened Def Con from 0.00138928 to 0.00138928
Heightened Def Con from 0.00140672 to 0.00140672
Heightened Def Con from 0.00140924 to 0.00140924
Heightened Def Con from 0.00140924 to 0.00140924
Heightened Def Con from 0.00142682 to 0.00142682
Heightened Def Con from 0.00142684 to 0.00142684
Heightened Def Con from 0.00142684 to 0.00142684
Heightened Def Con from 0.00142684 to 0.00142684
Heightened Def Con from 0.00142684 to 0.00142684
Heightened Def Con from 0.00142684 to 0.00142684
Heightened Def Con from 0.00142684 to 0.00142684
Heightened Def Con from 0.00142807 to 0.00142807
Heightened Def Con from 0.00142918 to 0.00142918
Heightened Def Con from 0.00142918 to 0.00142919
Heightened Def Con from 0.00142921 to 0.00142921
Heightened Def Con from 0.00142921 to 0.00142921
Heightened Def Con from 0.0014469 to 0.0014469
Heightened Def Con from 0.0014469 to 0.0014469
Heightened Def Con from 0.00144692 ++++++++++++++++++++++++to 0.00144692
Heightened Def Con from 0.00144692 +++++++++++++to 0.00144693
Heightened Def Con from 0.00144693 +++++++++to 0.00144693
Heightened Def Con from 0.00144693 to 0.00144693
Heightened Def Con from 0.00144917 to 0.00144917
Heightened Def Con from 0.00144917 to 0.00144917
Heightened Def Con from 0.0014492 to 0.0014492
Heightened Def Con from 0.0014492 to 0.0014492
Heightened Def Con from 0.0014492 ++++++++++++++++++++++++to 0.0014492
Heightened Def Con from 0.0014492 to 0.0014492
Heightened Def Con from 0.00146697 to 0.00146697
Heightened Def Con from 0.00146697 to 0.00146697
Heightened Def Con from 0.00146699 to 0.00146699
Heightened Def Con from 0.00146699 to 0.00146699
Heightened Def Con from 0.00146917 to 0.00146917
Heightened Def Con from 0.0014692 to 0.0014692
Heightened Def Con from 0.0014692 to 0.0014692
Heightened Def Con from 0.0014692 to 0.0014692
Heightened Def Con from 0.0014692 to 0.0014692
Heightened Def Con from 0.00148705 to 0.00148705
Heightened Def Con from 0.00148919 +to 0.00148919
Heightened Def Con from 0.00148919 to 0.00148919
Heightened Def Con from 0.00148922 to 0.00148922
Heightened Def Con from 0.00148922 to 0.00148922
Heightened Def Con from 0.00148922 to 0.00148922
Heightened Def Con from 0.00150706 to 0.00150706
Heightened Def Con from 0.00150706 to 0.00150706
Heightened Def Con from 0.00150708 to 0.00150708
Heightened Def Con from 0.00150923 to 0.00150923
Heightened Def Con from 0.00150923 to 0.00150923
Heightened Def Con from 0.00150923 to 0.00150923
Heightened Def Con from 0.00150925 to 0.00150925
Heightened Def Con from 0.00150925 to 0.00150925
Heightened Def Con from 0.00152708 to 0.00152708
Heightened Def Con from 0.0015271 to 0.0015271
Heightened Def Con from 0.00152817 to 0.00152817
Heightened Def Con from 0.00152928 to 0.00152928
Heightened Def Con from 0.00152928 to 0.00152928
Heightened Def Con from 0.0015293 ++++++++++++++++++++++++to 0.0015293
Heightened Def Con from 0.0015293 to 0.0015293
Heightened Def Con from 0.0015293 +to 0.0015293
Heightened Def Con from 0.0015293 ++to 0.0015293
Heightened Def Con from 0.0015293 to 0.0015293
Heightened Def Con from 0.00154708 to 0.00154708
Heightened Def Con from 0.00154934 to 0.00154934
Heightened Def Con from 0.00154934 to 0.00154934
Heightened Def Con from 0.00154937 ++++++++++++++++++++++++to 0.00154937
Heightened Def Con from 0.00154937 to 0.00154937
Heightened Def Con from 0.00156707 to 0.00156708
Heightened Def Con from 0.0015671 to 0.0015671
Heightened Def Con from 0.0015671 to 0.0015671
Heightened Def Con from 0.00156942 to 0.00156942
Heightened Def Con from 0.00156942 to 0.00156942
Heightened Def Con from 0.00156945 to 0.00156945
Heightened Def Con from 0.00156945 to 0.00156945
Heightened Def Con from 0.00156945 to 0.00156945
Heightened Def Con from 0.00156945 to 0.00156945
Heightened Def Con from 0.00158705 to 0.00158705
Heightened Def Con from 0.00158705 to 0.00158705
Heightened Def Con from 0.00158708 to 0.00158708
Heightened Def Con from 0.00158708 to 0.00158708
Heightened Def Con from 0.00158952 to 0.00158952
Heightened Def Con from 0.00158952 to 0.00158952
Heightened Def Con from 0.00158955 to 0.00158955
Heightened Def Con from 0.00158955 to 0.00158955
Heightened Def Con from 0.00160701 to 0.00160701
Heightened Def Con from 0.00160701 to 0.00160701
Heightened Def Con from 0.00160966 to 0.00160966
Heightened Def Con from 0.00162696 to 0.00162696
Heightened Def Con from 0.00162696 to 0.00162696
Heightened Def Con from 0.00162696 to 0.00162696
Heightened Def Con from 0.00162698 ++++++++++++++++++++++++++to 0.00162698
Heightened Def Con from 0.00162698 +++++++++++++to 0.00162699
Heightened Def Con from 0.00162699 +++++++++to 0.00162699
Heightened Def Con from 0.00162699 to 0.00162699
Heightened Def Con from 0.00162978 ++++++++++++++++++++++++to 0.00162978
Heightened Def Con from 0.00162978 to 0.00162978
Heightened Def Con from 0.00164689 to 0.00164689
Heightened Def Con from 0.00164689 to 0.00164689
Heightened Def Con from 0.00164692 to 0.00164692
Heightened Def Con from 0.00164692 to 0.00164692
Heightened Def Con from 0.0016499 to 0.0016499
Heightened Def Con from 0.0016499 to 0.0016499
Heightened Def Con from 0.00164992 to 0.00164992
Heightened Def Con from 0.00164992 to 0.00164992
Heightened Def Con from 0.00166681 to 0.00166681
Heightened Def Con from 0.00166681 to 0.00166681
Heightened Def Con from 0.00166684 to 0.00166684
Heightened Def Con from 0.00166684 to 0.00166684
Heightened Def Con from 0.00167005 +to 0.00167005
Heightened Def Con from 0.00167005 to 0.00167005
Heightened Def Con from 0.00167008 to 0.00167008
Heightened Def Con from 0.00167008 to 0.00167008
Heightened Def Con from 0.00168672 ++++++++++++++++++++++++++to 0.00168672
Heightened Def Con from 0.00168672 +++++++++to 0.00168672
Heightened Def Con from 0.00168672 to 0.00168672
Heightened Def Con from 0.00168674 ++++++++++++++++++++++++++to 0.00168674
Heightened Def Con from 0.00168674 +++++++++++++to 0.00168674
Heightened Def Con from 0.00168674 +++++++++to 0.00168674
Heightened Def Con from 0.00168674 to 0.00168675
Heightened Def Con from 0.00169022 to 0.00169022
Heightened Def Con from 0.00169022 to 0.00169022
Heightened Def Con from 0.00169025 ++++++++++++++++++++++++++to 0.00169025
Heightened Def Con from 0.00169025 to 0.00169025
Heightened Def Con from 0.00169025 to 0.00169025
Heightened Def Con from 0.00170661 to 0.00170661
Heightened Def Con from 0.00170663 to 0.00170663
Heightened Def Con from 0.00170663 to 0.00170663
Heightened Def Con from 0.00170663 to 0.00170664
Heightened Def Con from 0.00170856 to 0.00170856
Heightened Def Con from 0.0017104 to 0.0017104
Heightened Def Con from 0.0017104 to 0.0017104
Heightened Def Con from 0.00171043 to 0.00171043
Heightened Def Con from 0.00172649 +++++++++++++++++++++++to 0.00172649
Heightened Def Con from 0.00172649 +++++++++++to 0.00172649
Heightened Def Con from 0.00172649 to 0.00172649
Heightened Def Con from 0.0017306 to 0.0017306
Heightened Def Con from 0.0017306 to 0.0017306
Heightened Def Con from 0.00173062 to 0.00173062
Heightened Def Con from 0.00173062 to 0.00173062
Heightened Def Con from 0.00174636 to 0.00174636
Heightened Def Con from 0.00174636 to 0.00174636
Heightened Def Con from 0.0017508 to 0.0017508
Heightened Def Con from 0.0017508 to 0.0017508
Heightened Def Con from 0.0017508 +++++++++++++++++++++++to 0.0017508
Heightened Def Con from 0.0017508 ++++++++++++to 0.00175081
Heightened Def Con from 0.00175081 to 0.00175081
Heightened Def Con from 0.00175083 to 0.00175083
Heightened Def Con from 0.00175083 to 0.00175083
Heightened Def Con from 0.00176622 ++++++++++++++++++++++++++to 0.00176622
Heightened Def Con from 0.00176622 +++++++++to 0.00176622
Heightened Def Con from 0.00176622 to 0.00176622
Heightened Def Con from 0.00176624 to 0.00176624
Heightened Def Con from 0.00178607 to 0.00178607
Heightened Def Con from 0.00178609 to 0.00178609
Heightened Def Con from 0.00178609 to 0.00178609
Heightened Def Con from 0.00179125 to 0.00179125
Heightened Def Con from 0.00179125 to 0.00179125
Heightened Def Con from 0.00179125 to 0.00179125
Heightened Def Con from 0.00179128 ++++++++++++++++++++++++++to 0.00179128
Heightened Def Con from 0.00179128 +++++++++++++to 0.00179128
Heightened Def Con from 0.00179128 +++++++++to 0.00179128
Heightened Def Con from 0.00179128 to 0.00179128
Heightened Def Con from 0.00179128 to 0.00179128
Heightened Def Con from 0.00180591 to 0.00180591
Heightened Def Con from 0.00180591 to 0.00180591
Heightened Def Con from 0.00180593 to 0.00180593
Heightened Def Con from 0.00180593 to 0.00180594
Heightened Def Con from 0.00181149 +to 0.00181149
Heightened Def Con from 0.00181149 to 0.00181149
Heightened Def Con from 0.00181151 +to 0.00181151
Heightened Def Con from 0.00182574 to 0.00182574
Heightened Def Con from 0.00182577 ++++++++++++++++++++++++++to 0.00182577
Heightened Def Con from 0.00182577 +++++++++++to 0.00182577
Heightened Def Con from 0.00183174 +++++++++++++++++++++++++to 0.00183174
Heightened Def Con from 0.00183174 ++++++++++++++to 0.00183174
Heightened Def Con from 0.00183174 +++++++++++to 0.00183174
Heightened Def Con from 0.00183174 to 0.00183174
Heightened Def Con from 0.00183174 ++++++++++++++++++++++++to 0.00183174
Heightened Def Con from 0.00183174 +++++++++++++to 0.00183174
Heightened Def Con from 0.00183174 ++++++++++to 0.00183174
Heightened Def Con from 0.00183174 to 0.00183174
Heightened Def Con from 0.00183174 to 0.00183175
Heightened Def Con from 0.00184557 to 0.00184557
Heightened Def Con from 0.00184557 to 0.00184557
Heightened Def Con from 0.00184559 to 0.00184559
Heightened Def Con from 0.00184559 to 0.00184559
Heightened Def Con from 0.001852 to 0.001852
Heightened Def Con from 0.00185202 ++++++++++++++++++++++++to 0.00185202
Heightened Def Con from 0.00185202 +++++++++++++to 0.00185202
Heightened Def Con from 0.00185202 +++++++++to 0.00185202
Heightened Def Con from 0.00185202 to 0.00185202
Heightened Def Con from 0.00186541 to 0.00186541
Heightened Def Con from 0.00186541 to 0.00186541
Heightened Def Con from 0.00186541 to 0.00186541
Heightened Def Con from 0.00187226 to 0.00187226
Heightened Def Con from 0.00187226 to 0.00187226
Heightened Def Con from 0.00187226 to 0.00187226
Heightened Def Con from 0.00187228 to 0.00187228
Heightened Def Con from 0.00187228 to 0.00187229
Heightened Def Con from 0.00188519 to 0.00188519
Heightened Def Con from 0.00188519 ++++++++++++++++++++++++++to 0.00188519
Heightened Def Con from 0.00188519 to 0.0018852
Heightened Def Con from 0.00188522 ++++++++++++++++++++++++++to 0.00188522
Heightened Def Con from 0.00188522 to 0.00188522
Heightened Def Con from 0.00189253 to 0.00189253
Heightened Def Con from 0.00189255 +++++++++++++++++++++++++to 0.00189256
Heightened Def Con from 0.00189256 +++++++++++++++to 0.00189256
Heightened Def Con from 0.00189256 +++++++++++++to 0.00189256
Heightened Def Con from 0.00189256 +++++++++++++to 0.00189256
Heightened Def Con from 0.00189256 ++++++++++++to 0.00189256
Heightened Def Con from 0.00189256 to 0.00189256
Heightened Def Con from 0.001905 to 0.001905
Heightened Def Con from 0.001905 +++++++++++++++++++++++to 0.001905
Heightened Def Con from 0.001905 +++++++++++to 0.001905
Heightened Def Con from 0.001905 to 0.001905
Heightened Def Con from 0.001905 to 0.001905
Heightened Def Con from 0.00190503 to 0.00190503
Heightened Def Con from 0.00191281 +++++++++++++++++++++++++to 0.00191281
Heightened Def Con from 0.00191281 +++++++++++++++to 0.00191281
Heightened Def Con from 0.00191281 ++++++++++++to 0.00191281
Heightened Def Con from 0.00191281 ++++++++++++to 0.00191281
Heightened Def Con from 0.00191281 to 0.00191281
Heightened Def Con from 0.00191281 to 0.00191281
Heightened Def Con from 0.00191281 to 0.00191281
Heightened Def Con from 0.00191281 to 0.00191281
Heightened Def Con from 0.00191281 to 0.00191281
Heightened Def Con from 0.00192481 to 0.00192481
Heightened Def Con from 0.00192481 to 0.00192481
Heightened Def Con from 0.00192483 to 0.00192483
Heightened Def Con from 0.00193309 +to 0.00193309
Heightened Def Con from 0.00193309 to 0.00193309
Heightened Def Con from 0.00193311 +++++++++++++++++++++++++to 0.00193312
Heightened Def Con from 0.00193312 +++++++++++++++to 0.00193312
Heightened Def Con from 0.00193312 +++++++++++++to 0.00193312
Heightened Def Con from 0.00193312 +++++++++++++to 0.00193312
Heightened Def Con from 0.00193312 ++++++++++++to 0.00193312
Heightened Def Con from 0.00193312 to 0.00193312
Heightened Def Con from 0.00194461 to 0.00194461
Heightened Def Con from 0.00194461 to 0.00194461
Heightened Def Con from 0.00194463 +to 0.00194463
Heightened Def Con from 0.00194463 to 0.00194463
Heightened Def Con from 0.00195337 to 0.00195337
Heightened Def Con from 0.00195337 to 0.00195338
Heightened Def Con from 0.0019534 to 0.0019534
Heightened Def Con from 0.0019644 to 0.0019644
Heightened Def Con from 0.0019644 to 0.0019644
Heightened Def Con from 0.0019644 to 0.0019644
Heightened Def Con from 0.00197366 to 0.00197366
Heightened Def Con from 0.00197368 to 0.00197368
Heightened Def Con from 0.00198419 ++++++++++++++++++++++++++to 0.00198419
Heightened Def Con from 0.00198419 to 0.0019842
Heightened Def Con from 0.00198422 to 0.00198422
Heightened Def Con from 0.00198422 to 0.00198422
Heightened Def Con from 0.00199394 to 0.00199394
Heightened Def Con from 0.00199397 to 0.00199397
Heightened Def Con from 0.00199397 to 0.00199397
Heightened Def Con from 0.00200399 to 0.00200399
Heightened Def Con from 0.00200399 to 0.00200399
Heightened Def Con from 0.00201423 +to 0.00201423
Heightened Def Con from 0.00201425 to 0.00201425
Heightened Def Con from 0.00201425 to 0.00201425
Heightened Def Con from 0.00201425 to 0.00201425
Heightened Def Con from 0.00202378 to 0.00202378
Heightened Def Con from 0.00202378 to 0.00202378
Heightened Def Con from 0.0020238 to 0.0020238
Heightened Def Con from 0.0020238 to 0.0020238
Heightened Def Con from 0.00203454 +++++++++++++++++++++++++to 0.00203454
Heightened Def Con from 0.00203454 +++++++++++++++to 0.00203454
Heightened Def Con from 0.00203454 +++++++++++++to 0.00203454
Heightened Def Con from 0.00203454 +++++++++++++to 0.00203454
Heightened Def Con from 0.00203454 ++++++++++++to 0.00203454
Heightened Def Con from 0.00203454 to 0.00203455
Heightened Def Con from 0.00204358 to 0.00204358
Heightened Def Con from 0.00204358 to 0.00204358
Heightened Def Con from 0.0020436 to 0.0020436
Heightened Def Con from 0.0020436 to 0.0020436
Heightened Def Con from 0.0020548 to 0.0020548
Heightened Def Con from 0.00205483 to 0.00205483
Heightened Def Con from 0.00205483 to 0.00205483
Heightened Def Con from 0.00205483 to 0.00205483
Heightened Def Con from 0.00206337 ++++++++++++++++++++++++++to 0.00206337
Heightened Def Con from 0.00206337 ++++to 0.00206337
Heightened Def Con from 0.00206339 ++++++++++++++++++++++++++to 0.00206339
Heightened Def Con from 0.00206339 ++++++++++++++++++++to 0.00206339
Heightened Def Con from 0.00206339 +++++++++++++++++to 0.00206339
Heightened Def Con from 0.00206339 +++++++++++++++to 0.00206339
Heightened Def Con from 0.00206339 to 0.00206339
Heightened Def Con from 0.00206339 to 0.00206339
Heightened Def Con from 0.00206339 to 0.00206339
Heightened Def Con from 0.00206339 to 0.0020634
Heightened Def Con from 0.00207508 to 0.00207508
Heightened Def Con from 0.00207511 to 0.00207511
Heightened Def Con from 0.00208317 ++++++++++++++++++++++++++to 0.00208317
Heightened Def Con from 0.00208317 to 0.00208317
Heightened Def Con from 0.00208319 to 0.00208319
Heightened Def Con from 0.00209536 to 0.00209536
Heightened Def Con from 0.00209538 to 0.00209538
Heightened Def Con from 0.00210297 ++++++++++++++++++++++++++to 0.00210297
Heightened Def Con from 0.00210297 to 0.00210297
Heightened Def Con from 0.00211563 to 0.00211563
Heightened Def Con from 0.00211565 to 0.00211565
Heightened Def Con from 0.00212278 to 0.00212278
Heightened Def Con from 0.0021228 to 0.0021228
Heightened Def Con from 0.0021359 to 0.0021359
Heightened Def Con from 0.0021359 to 0.0021359
Heightened Def Con from 0.00213592 +++++++++++++++++++++++++to 0.00213593
Heightened Def Con from 0.00213593 +++++++++++++++to 0.00213593
Heightened Def Con from 0.00213593 +++++++++++++to 0.00213593
Heightened Def Con from 0.00213593 +++++++++++++to 0.00213593
Heightened Def Con from 0.00213593 +++++++++++++to 0.00213593
Heightened Def Con from 0.00213593 ++++++++++++to 0.00213593
Heightened Def Con from 0.00213593 to 0.00213593
Heightened Def Con from 0.00214259 ++++++++++++++++++++++++++to 0.00214259
Heightened Def Con from 0.00214259 to 0.00214259
Heightened Def Con from 0.00214262 to 0.00214262
Heightened Def Con from 0.00214262 to 0.00214262
Heightened Def Con from 0.00215618 to 0.00215619
Heightened Def Con from 0.00216241 to 0.00216241
Heightened Def Con from 0.00216241 to 0.00216241
Heightened Def Con from 0.00216244 ++++++++++++++++++++++++to 0.00216244
Heightened Def Con from 0.00216244 +++++++++++++to 0.00216244
Heightened Def Con from 0.00216244 ++++++++++to 0.00216244
Heightened Def Con from 0.00216244 ++++++++to 0.00216244
Heightened Def Con from 0.00217641 +++++++++++++++++++++++++to 0.00217642
Heightened Def Con from 0.00217642 +++++++++++++++to 0.00217642
Heightened Def Con from 0.00217642 ++++++++++++to 0.00217642
Heightened Def Con from 0.00217642 +++++++++++to 0.00217642
Heightened Def Con from 0.00217642 +++++++++++to 0.00217642
Heightened Def Con from 0.00217642 to 0.00217642
Heightened Def Con from 0.00217642 to 0.00217642
Heightened Def Con from 0.00217642 to 0.00217642
Heightened Def Con from 0.00218224 to 0.00218224
Heightened Def Con from 0.00218224 to 0.00218224
Heightened Def Con from 0.00218227 ++++++++++++++++++++++++to 0.00218227
Heightened Def Con from 0.00218227 +++++++++++++to 0.00218227
Heightened Def Con from 0.00218227 ++++++++++to 0.00218227
Heightened Def Con from 0.00218227 ++++++++to 0.00218227
Heightened Def Con from 0.00219666 to 0.00219666
Heightened Def Con from 0.00219666 to 0.00219666
Heightened Def Con from 0.00220208 to 0.00220208
Heightened Def Con from 0.0022021 to 0.0022021
Heightened Def Con from 0.0022021 +to 0.0022021
Heightened Def Con from 0.0022021 to 0.0022021
Heightened Def Con from 0.0022021 to 0.0022021
Heightened Def Con from 0.0022169 to 0.0022169
Heightened Def Con from 0.0022195 to 0.00221951
Heightened Def Con from 0.00222192 +to 0.00222192
Heightened Def Con from 0.00222192 to 0.00222192
Heightened Def Con from 0.00222195 +to 0.00222195
Heightened Def Con from 0.00222195 to 0.00222195
Heightened Def Con from 0.00224177 to 0.00224177
Heightened Def Con from 0.00224177 to 0.00224178
Heightened Def Con from 0.0022418 +to 0.0022418
Heightened Def Con from 0.0022418 to 0.0022418
Heightened Def Con from 0.0022418 +++++++++++++++++++++++to 0.0022418
Heightened Def Con from 0.0022418 +++++++++++++to 0.0022418
Heightened Def Con from 0.0022418 +++++++++to 0.0022418
Heightened Def Con from 0.0022418 to 0.0022418
Heightened Def Con from 0.0022418 to 0.0022418
Heightened Def Con from 0.00225733 to 0.00225733
Heightened Def Con from 0.00225733 to 0.00225733
Heightened Def Con from 0.00225736 to 0.00225736
Heightened Def Con from 0.00226164 ++++++++++++++++++++++++to 0.00226164
Heightened Def Con from 0.00226164 ++++++++++to 0.00226164
Heightened Def Con from 0.00226164 to 0.00226164
Heightened Def Con from 0.00226166 +to 0.00226166
Heightened Def Con from 0.00226166 to 0.00226166
Heightened Def Con from 0.00227753 to 0.00227753
Heightened Def Con from 0.00227756 +++++++++++++++++++++++++to 0.00227756
Heightened Def Con from 0.00227756 +++++++++++++++to 0.00227756
Heightened Def Con from 0.00227756 ++++++++++++to 0.00227756
Heightened Def Con from 0.00227756 +++++++++++to 0.00227756
Heightened Def Con from 0.00228151 +++++++++++++++++++++++to 0.00228151
Heightened Def Con from 0.00228151 +++++++++++to 0.00228151
Heightened Def Con from 0.00228151 to 0.00228152
Heightened Def Con from 0.00229775 +to 0.00229775
Heightened Def Con from 0.00229775 to 0.00229775
Heightened Def Con from 0.0023014 ++++++++++++++++++++++++to 0.0023014
Heightened Def Con from 0.0023014 +++++++++++to 0.0023014
Heightened Def Con from 0.0023014 to 0.0023014
Heightened Def Con from 0.00230142 ++++++++++++++++++++++++to 0.00230142
Heightened Def Con from 0.00230142 +++++++++++++to 0.00230142
Heightened Def Con from 0.00230142 +++++++++to 0.00230142
Heightened Def Con from 0.00230142 to 0.00230142
Heightened Def Con from 0.0023179 to 0.0023179
Heightened Def Con from 0.00231793 +to 0.00231793
Heightened Def Con from 0.0023213 to 0.0023213
Heightened Def Con from 0.0023213 +++++++++++++++++++++++to 0.0023213
Heightened Def Con from 0.0023213 +++++++++++to 0.0023213
Heightened Def Con from 0.0023213 to 0.0023213
Heightened Def Con from 0.00232132 ++++++++++++++++++++++++to 0.00232132
Heightened Def Con from 0.00232132 +++++++++++++to 0.00232132
Heightened Def Con from 0.00232132 +++++++++to 0.00232132
Heightened Def Con from 0.00233807 to 0.00233807
Heightened Def Con from 0.00233809 +++++++++++++++++++++++++to 0.00233809
Heightened Def Con from 0.00233809 ++++++++++++++to 0.00233809
Heightened Def Con from 0.00233809 +++++++++++to 0.00233809
Heightened Def Con from 0.00233809 +++++++++++to 0.00233809
Heightened Def Con from 0.00233809 ++++++++++to 0.00233809
Heightened Def Con from 0.00233809 to 0.00233809
Heightened Def Con from 0.00233809 to 0.0023381
Heightened Def Con from 0.00234121 ++++++++++++++++++++++++to 0.00234121
Heightened Def Con from 0.00234121 ++++++++++to 0.00234121
Heightened Def Con from 0.00234121 to 0.00234122
Heightened Def Con from 0.00234123 ++++++++++++++++++++++++to 0.00234123
Heightened Def Con from 0.00234123 +++++++++++++to 0.00234123
Heightened Def Con from 0.00234123 +++++++++to 0.00234123
Heightened Def Con from 0.00234123 to 0.00234123
Heightened Def Con from 0.00235822 to 0.00235822
Heightened Def Con from 0.00235822 +++++++++++++++++++++++++to 0.00235823
Heightened Def Con from 0.00235823 +++++++++++++++to 0.00235823
Heightened Def Con from 0.00235823 ++++++++++++to 0.00235823
Heightened Def Con from 0.00235823 ++++++++++++to 0.00235823
Heightened Def Con from 0.00235823 to 0.00235823
Heightened Def Con from 0.00236117 to 0.00236117
Heightened Def Con from 0.00236117 to 0.00236117
Heightened Def Con from 0.00236117 to 0.00236117
Heightened Def Con from 0.00236117 to 0.00236117
Heightened Def Con from 0.00237836 +to 0.00237836
Heightened Def Con from 0.00237839 to 0.00237839
Heightened Def Con from 0.00237839 to 0.00237839
Heightened Def Con from 0.00238111 ++++++++++++++++++++++++to 0.00238111
Heightened Def Con from 0.00238111 ++++++++++++to 0.00238111
Heightened Def Con from 0.00238111 +++++++++++to 0.00238111
Heightened Def Con from 0.00238111 +++++++++++to 0.00238111
Heightened Def Con from 0.00238111 +++++++++++to 0.00238111
Heightened Def Con from 0.00238111 +++++++++++to 0.00238111
Heightened Def Con from 0.00238111 +++++++++++to 0.00238111
Heightened Def Con from 0.00238111 to 0.00238111
Heightened Def Con from 0.00239848 +++++++++++++++++++++++++to 0.00239849
Heightened Def Con from 0.00239849 +++++++++++++++to 0.00239849
Heightened Def Con from 0.00239849 ++++++++++++to 0.00239849
Heightened Def Con from 0.00239849 ++++++++++++to 0.00239849
Heightened Def Con from 0.00239849 to 0.00239849
Heightened Def Con from 0.00240104 to 0.00240104
Heightened Def Con from 0.00240104 to 0.00240104
Heightened Def Con from 0.00240107 to 0.00240107
Heightened Def Con from 0.00240107 to 0.00240107
Heightened Def Con from 0.00241859 to 0.00241859
Heightened Def Con from 0.00241859 to 0.00241859
Heightened Def Con from 0.00241862 to 0.00241862
Heightened Def Con from 0.00241862 to 0.00241862
Heightened Def Con from 0.00242101 +++++++++++++++++++++++to 0.00242101
Heightened Def Con from 0.00242101 +++++++++++to 0.00242101
Heightened Def Con from 0.00242101 to 0.00242101
Heightened Def Con from 0.00242103 to 0.00242103
Heightened Def Con from 0.00243868 +++++++++++++++++++++++++to 0.00243869
Heightened Def Con from 0.00243869 +++++++++++++++to 0.00243869
Heightened Def Con from 0.00243869 ++++++++++++to 0.00243869
Heightened Def Con from 0.00243869 ++++++++++++to 0.00243869
Heightened Def Con from 0.00243869 to 0.00243869
Heightened Def Con from 0.00244102 +++++++++++++++++++++++to 0.00244102
Heightened Def Con from 0.00244102 +++++++++++++to 0.00244102
Heightened Def Con from 0.00244102 ++++++++++to 0.00244102
Heightened Def Con from 0.00244102 ++++++++to 0.00244102
Heightened Def Con from 0.00244102 to 0.00244102
Heightened Def Con from 0.00244102 to 0.00244102
Heightened Def Con from 0.00244102 to 0.00244103
Heightened Def Con from 0.00245876 +++++++++++++++++++++++++to 0.00245877
Heightened Def Con from 0.00245877 ++++++++++++++to 0.00245877
Heightened Def Con from 0.00245877 +++++++++++to 0.00245877
Heightened Def Con from 0.00245877 +++++++++to 0.00245877
Heightened Def Con from 0.00245877 to 0.00245877
Heightened Def Con from 0.002461 to 0.002461
Heightened Def Con from 0.00247883 +to 0.00247883
Heightened Def Con from 0.00247885 to 0.00247885
Heightened Def Con from 0.00248101 to 0.00248101
Heightened Def Con from 0.00248101 to 0.00248101
Heightened Def Con from 0.00248103 to 0.00248103
Heightened Def Con from 0.00248103 to 0.00248103
Heightened Def Con from 0.00249887 to 0.00249887
Heightened Def Con from 0.00249889 ++++++++++++++++++++++++to 0.00249889
Heightened Def Con from 0.00249889 +++++++++++++to 0.00249889
Heightened Def Con from 0.00249889 +++++++++to 0.00249889
Heightened Def Con from 0.00249889 to 0.0024989
Heightened Def Con from 0.0024989 to 0.0024989
Heightened Def Con from 0.00250104 to 0.00250104
Heightened Def Con from 0.00250104 to 0.00250104
Heightened Def Con from 0.00250106 to 0.00250106
Heightened Def Con from 0.00250106 to 0.00250106
Heightened Def Con from 0.0025189 +to 0.0025189
Heightened Def Con from 0.00251892 to 0.00251892
Heightened Def Con from 0.00252108 to 0.00252108
Heightened Def Con from 0.0025211 +to 0.0025211
Heightened Def Con from 0.00254114 +++++++++++++++++++++++to 0.00254114
Heightened Def Con from 0.00254114 +++++++++++to 0.00254114
Heightened Def Con from 0.00254114 to 0.00254114
Heightened Def Con from 0.00254116 to 0.00254116
Heightened Def Con from 0.00255893 +++++++++++++++++++++++++to 0.00255893
Heightened Def Con from 0.00255893 ++++++++++++++to 0.00255893
Heightened Def Con from 0.00255893 +++++++++++to 0.00255893
Heightened Def Con from 0.00255893 +++++++++++to 0.00255893
Heightened Def Con from 0.00255893 ++++++++++to 0.00255893
Heightened Def Con from 0.00255893 to 0.00255893
Heightened Def Con from 0.00255893 to 0.00255894
Heightened Def Con from 0.00256121 to 0.00256121
Heightened Def Con from 0.00256121 to 0.00256121
Heightened Def Con from 0.00257889 to 0.00257889
Heightened Def Con from 0.00257891 +++++++++++++++++++++++++to 0.00257892
Heightened Def Con from 0.00257892 ++++++++++++++to 0.00257892
Heightened Def Con from 0.00257892 +++++++++++to 0.00257892
Heightened Def Con from 0.00257892 +++++++++++to 0.00257892
Heightened Def Con from 0.00257892 ++++++++++to 0.00257892
Heightened Def Con from 0.00257892 to 0.00257892
Heightened Def Con from 0.00257892 to 0.00257892
Heightened Def Con from 0.00258131 to 0.00258131
Heightened Def Con from 0.00258131 to 0.00258131
Heightened Def Con from 0.00258131 to 0.00258131
Heightened Def Con from 0.00258133 to 0.00258133
Heightened Def Con from 0.00258133 to 0.00258133
Heightened Def Con from 0.00258133 to 0.00258133
Heightened Def Con from 0.00259886 to 0.00259886
Heightened Def Con from 0.00259888 +++++++++++++++++++++++++to 0.00259888
Heightened Def Con from 0.00259888 ++++++++++++++to 0.00259889
Heightened Def Con from 0.00259889 +++++++++++to 0.00259889
Heightened Def Con from 0.00259889 +++++++++++to 0.00259889
Heightened Def Con from 0.00259889 ++++++++++to 0.00259889
Heightened Def Con from 0.00259889 to 0.00259889
Heightened Def Con from 0.00259889 to 0.00259889
Heightened Def Con from 0.00260141 to 0.00260141
Heightened Def Con from 0.00260141 to 0.00260141
Heightened Def Con from 0.00260144 to 0.00260144
Heightened Def Con from 0.00260144 to 0.00260144
Heightened Def Con from 0.00261884 +++++++++++++++++++++++++to 0.00261884
Heightened Def Con from 0.00261884 ++++++++++++++to 0.00261884
Heightened Def Con from 0.00261884 +++++++++++to 0.00261884
Heightened Def Con from 0.00261884 +++++++++++to 0.00261884
Heightened Def Con from 0.00261884 ++++++++++to 0.00261884
Heightened Def Con from 0.00261884 to 0.00261884
Heightened Def Con from 0.00262153 +++++++++++++++++++++++to 0.00262153
Heightened Def Con from 0.00262153 +++++++++++to 0.00262154
Heightened Def Con from 0.00262154 to 0.00262154
Heightened Def Con from 0.00262156 ++++++++++++++++++++++++to 0.00262156
Heightened Def Con from 0.00262156 ++++++++++++to 0.00262156
Heightened Def Con from 0.00262156 +++++++++++to 0.00262156
Heightened Def Con from 0.00262156 +++++++++++to 0.00262156
Heightened Def Con from 0.00262156 +++++++++++to 0.00262156
Heightened Def Con from 0.00262156 to 0.00262156
Heightened Def Con from 0.00263875 to 0.00263875
Heightened Def Con from 0.00264167 to 0.00264167
Heightened Def Con from 0.00264167 to 0.00264167
Heightened Def Con from 0.00264169 to 0.00264169
Heightened Def Con from 0.00265868 ++++++++++++++++++++++++to 0.00265868
Heightened Def Con from 0.00265868 +++++++++++to 0.00265868
Heightened Def Con from 0.00265868 to 0.00265868
Heightened Def Con from 0.0026587 +++++++++++++++++++++++++to 0.0026587
Heightened Def Con from 0.0026587 ++++++++++++++to 0.0026587
Heightened Def Con from 0.0026587 +++++++++++to 0.0026587
Heightened Def Con from 0.0026587 +++++++++++to 0.0026587
Heightened Def Con from 0.0026587 ++++++++++to 0.0026587
Heightened Def Con from 0.0026587 to 0.0026587
Heightened Def Con from 0.0026587 to 0.00265871
Heightened Def Con from 0.00266182 to 0.00266182
Heightened Def Con from 0.00266182 to 0.00266182
Heightened Def Con from 0.00266184 +to 0.00266184
Heightened Def Con from 0.00266184 to 0.00266184
Heightened Def Con from 0.00266184 to 0.00266184
Heightened Def Con from 0.00267859 to 0.00267859
Heightened Def Con from 0.00267859 to 0.00267859
Heightened Def Con from 0.00267861 to 0.00267861
Heightened Def Con from 0.00267861 to 0.00267861
Heightened Def Con from 0.002682 ++++++++++++++++++++++++to 0.002682
Heightened Def Con from 0.002682 +++++++++++++to 0.00268201
Heightened Def Con from 0.00268201 ++++++++++to 0.00268201
Heightened Def Con from 0.00268201 +++++++to 0.00268201
Heightened Def Con from 0.00268201 to 0.00268201
Heightened Def Con from 0.00269849 +++++++++++++++++++++++++to 0.00269849
Heightened Def Con from 0.00269849 +++++++++++++++to 0.00269849
Heightened Def Con from 0.00269849 ++++++++++++to 0.00269849
Heightened Def Con from 0.00269849 +++++++++++to 0.00269849
Heightened Def Con from 0.00269849 +++++++++++to 0.00269849
Heightened Def Con from 0.00269849 to 0.00269849
Heightened Def Con from 0.00269849 to 0.00269849
Heightened Def Con from 0.00269849 to 0.00269849
Heightened Def Con from 0.00269849 to 0.00269849
Heightened Def Con from 0.00269849 to 0.00269849
Heightened Def Con from 0.00270216 to 0.00270216
Heightened Def Con from 0.00270219 +to 0.00270219
Heightened Def Con from 0.00271838 +++++++++++++++++++++++++to 0.00271838
Heightened Def Con from 0.00271838 +++++++++++++++to 0.00271838
Heightened Def Con from 0.00271838 ++++++++++++to 0.00271838
Heightened Def Con from 0.00271838 +++++++++++to 0.00271838
Heightened Def Con from 0.00271838 +++++++++++to 0.00271838
Heightened Def Con from 0.00271838 to 0.00271838
Heightened Def Con from 0.00271838 to 0.00271838
Heightened Def Con from 0.00271838 to 0.00271838
Heightened Def Con from 0.00271838 to 0.00271838
Heightened Def Con from 0.00272236 to 0.00272236
Heightened Def Con from 0.00272238 ++++++++++++++++++++++++to 0.00272238
Heightened Def Con from 0.00272238 +++++++++++++to 0.00272238
Heightened Def Con from 0.00272238 ++++++++++to 0.00272238
Heightened Def Con from 0.00272238 +++++++to 0.00272238
Heightened Def Con from 0.00272238 to 0.00272239
Heightened Def Con from 0.00273826 to 0.00273826
Heightened Def Con from 0.00273826 to 0.00273826
Heightened Def Con from 0.00273828 +to 0.00273828
Heightened Def Con from 0.00273828 ++++++++++++++++++++++++to 0.00273828
Heightened Def Con from 0.00273828 +++++++++++++to 0.00273828
Heightened Def Con from 0.00273828 +++++++++to 0.00273828
Heightened Def Con from 0.00273828 to 0.00273828
Heightened Def Con from 0.00275812 +++++++++++++++++++++++++to 0.00275812
Heightened Def Con from 0.00275812 +++++++++++++++to 0.00275812
Heightened Def Con from 0.00275812 ++++++++++++to 0.00275812
Heightened Def Con from 0.00275812 +++++++++++to 0.00275812
Heightened Def Con from 0.00275812 +++++++++++to 0.00275812
Heightened Def Con from 0.00275812 to 0.00275812
Heightened Def Con from 0.00275812 to 0.00275812
Heightened Def Con from 0.00275812 to 0.00275813
Heightened Def Con from 0.00276277 ++++++++++++++++++++++++to 0.00276277
Heightened Def Con from 0.00276277 +++++++++++to 0.00276278
Heightened Def Con from 0.00276278 to 0.00276278
Heightened Def Con from 0.00276279 to 0.00276279
Heightened Def Con from 0.002783 +to 0.002783
Heightened Def Con from 0.002783 to 0.002783
Heightened Def Con from 0.002783 to 0.002783
Heightened Def Con from 0.00278302 ++++++++++++++++++++++++++to 0.00278302
Heightened Def Con from 0.00278302 to 0.00278302
Heightened Def Con from 0.00279782 +to 0.00279782
Heightened Def Con from 0.00280326 to 0.00280326
Heightened Def Con from 0.00280326 to 0.00280326
Heightened Def Con from 0.00281051 to 0.00281051
Heightened Def Con from 0.00281765 to 0.00281765
Heightened Def Con from 0.00281768 to 0.00281768
Heightened Def Con from 0.00281768 to 0.00281768
Heightened Def Con from 0.00282348 to 0.00282348
Heightened Def Con from 0.00283748 ++++++++++++++++++++++++to 0.00283748
Heightened Def Con from 0.00283748 +++++++++++to 0.00283748
Heightened Def Con from 0.00283748 to 0.00283748
Heightened Def Con from 0.0028375 +++++++++++++++++++++++++to 0.00283751
Heightened Def Con from 0.00283751 +++++++++++++++to 0.00283751
Heightened Def Con from 0.00283751 +++++++++++++to 0.00283751
Heightened Def Con from 0.00283751 +++++++++++++to 0.00283751
Heightened Def Con from 0.00283751 +++++++++++++to 0.00283751
Heightened Def Con from 0.00283751 ++++++++++++to 0.00283751
Heightened Def Con from 0.00283751 to 0.00283751
Heightened Def Con from 0.00284373 ++++++++++++++++++++++++++to 0.00284373
Heightened Def Con from 0.00284373 +++++to 0.00284373
Heightened Def Con from 0.00284376 ++++++++++++++++++++++++to 0.00284376
Heightened Def Con from 0.00284376 +++++++++++++to 0.00284376
Heightened Def Con from 0.00284376 +++++++++to 0.00284376
Heightened Def Con from 0.00284376 to 0.00284376
Heightened Def Con from 0.0028573 to 0.0028573
Heightened Def Con from 0.00285733 +to 0.00285733
Heightened Def Con from 0.00285733 to 0.00285733
Heightened Def Con from 0.00286399 ++++++++++++++++++++++++++to 0.00286399
Heightened Def Con from 0.00286399 to 0.00286399
Heightened Def Con from 0.00286402 to 0.00286402
Heightened Def Con from 0.00286402 to 0.00286402
Heightened Def Con from 0.00287711 to 0.00287711
Heightened Def Con from 0.00287711 to 0.00287712
Heightened Def Con from 0.00287714 +++++++++++++++++++++++++to 0.00287715
Heightened Def Con from 0.00287715 +++++++++++++++to 0.00287715
Heightened Def Con from 0.00287715 +++++++++++++to 0.00287715
Heightened Def Con from 0.00287715 +++++++++++++to 0.00287715
Heightened Def Con from 0.00287715 +++++++++++++to 0.00287715
Heightened Def Con from 0.00287715 ++++++++++++to 0.00287715
Heightened Def Con from 0.00287715 to 0.00287715
Heightened Def Con from 0.00288426 to 0.00288426
Heightened Def Con from 0.00288426 to 0.00288427
Heightened Def Con from 0.00288429 to 0.00288429
Heightened Def Con from 0.00289693 to 0.00289693
Heightened Def Con from 0.00289695 to 0.00289695
Heightened Def Con from 0.00289695 to 0.00289695
Heightened Def Con from 0.00290453 ++++++++++++++++++++++++++to 0.00290453
Heightened Def Con from 0.00290453 ++to 0.00290454
Heightened Def Con from 0.00290456 ++++++++++++++++++++++++to 0.00290456
Heightened Def Con from 0.00290456 ++to 0.00290456
Heightened Def Con from 0.00290456 to 0.00290456
Heightened Def Con from 0.00291675 to 0.00291675
Heightened Def Con from 0.00291675 to 0.00291675
Heightened Def Con from 0.00292481 +to 0.00292481
Heightened Def Con from 0.00292484 to 0.00292484
Heightened Def Con from 0.00293653 to 0.00293653
Heightened Def Con from 0.00293655 to 0.00293655
Heightened Def Con from 0.00294509 ++++++++++++++++++++++++++to 0.00294509
Heightened Def Con from 0.00294509 ++++++++to 0.00294509
Heightened Def Con from 0.00294512 to 0.00294512
Heightened Def Con from 0.00295632 to 0.00295632
Heightened Def Con from 0.00295634 +++++++++++++++++++++++++to 0.00295635
Heightened Def Con from 0.00295635 +++++++++++++++to 0.00295635
Heightened Def Con from 0.00295635 ++++++++++++to 0.00295635
Heightened Def Con from 0.00295635 ++++++++++++to 0.00295635
Heightened Def Con from 0.00295635 ++++++++++to 0.00295635
Heightened Def Con from 0.00296538 +to 0.00296538
Heightened Def Con from 0.00296538 to 0.00296538
Heightened Def Con from 0.00296538 to 0.00296538
Heightened Def Con from 0.00297612 to 0.00297612
Heightened Def Con from 0.00297612 to 0.00297612
Heightened Def Con from 0.00297612 to 0.00297612
Heightened Def Con from 0.00297612 to 0.00297612
Heightened Def Con from 0.00297614 to 0.00297615
Heightened Def Con from 0.00298567 to 0.00298567
Heightened Def Con from 0.00298569 to 0.00298569
Heightened Def Con from 0.00298569 to 0.00298569
Heightened Def Con from 0.00299591 +++++++++++++++++++++++++to 0.00299592
Heightened Def Con from 0.00299592 +++++++++++++++to 0.00299592
Heightened Def Con from 0.00299592 ++++++++++++to 0.00299592
Heightened Def Con from 0.00299592 ++++++++++++to 0.00299592
Heightened Def Con from 0.00299592 to 0.00299592
Heightened Def Con from 0.00299592 to 0.00299592
Heightened Def Con from 0.00300596 to 0.00300596
Heightened Def Con from 0.00300596 ++to 0.00300596
Heightened Def Con from 0.00300596 to 0.00300596
Heightened Def Con from 0.00300598 to 0.00300598
Heightened Def Con from 0.00301571 to 0.00301571
Heightened Def Con from 0.00301573 to 0.00301573
Heightened Def Con from 0.0030355 to 0.0030355
Heightened Def Con from 0.0030355 to 0.0030355
Heightened Def Con from 0.00304652 ++++++++++++++++++++++++++to 0.00304652
Heightened Def Con from 0.00304652 to 0.00304652
Heightened Def Con from 0.00304655 to 0.00304655
Heightened Def Con from 0.00305529 +to 0.00305529
Heightened Def Con from 0.00305532 to 0.00305532
Heightened Def Con from 0.00305532 to 0.00305532
Heightened Def Con from 0.00306681 to 0.00306681
Heightened Def Con from 0.00306683 ++++++++++++++++++++++++++to 0.00306683
Heightened Def Con from 0.00306683 to 0.00306683
Heightened Def Con from 0.00307509 to 0.00307509
Heightened Def Con from 0.00307511 +++++++++++++++++++++++to 0.00307511
Heightened Def Con from 0.00307511 +++++++++++++to 0.00307511
Heightened Def Con from 0.00307511 +++++++++to 0.00307511
Heightened Def Con from 0.00307511 to 0.00307511
Heightened Def Con from 0.00308711 to 0.00308711
Heightened Def Con from 0.00309489 +++++++++++++++++++++++++to 0.00309489
Heightened Def Con from 0.00309489 +++++++++++++++to 0.00309489
Heightened Def Con from 0.00309489 ++++++++++++to 0.00309489
Heightened Def Con from 0.00309489 ++++++++++++to 0.00309489
Heightened Def Con from 0.00309489 to 0.00309489
Heightened Def Con from 0.00309489 to 0.0030949
Heightened Def Con from 0.00310738 ++++++++++++++++++++++++++to 0.00310738
Heightened Def Con from 0.00310738 +++++++++++++++++++to 0.00310738
Heightened Def Con from 0.00310738 +++++++++++++++++to 0.00310738
Heightened Def Con from 0.00310738 +++++++++++++++++to 0.00310738
Heightened Def Con from 0.00310738 +++++++++++++++++to 0.00310738
Heightened Def Con from 0.00310738 ++++++++++++++++to 0.00310738
Heightened Def Con from 0.00310738 ++++++++++++++to 0.00310738
Heightened Def Con from 0.00310738 ++++++to 0.00310738
Heightened Def Con from 0.00310738 to 0.00310738
Heightened Def Con from 0.00310738 +to 0.00310738
Heightened Def Con from 0.00310738 to 0.00310738
Heightened Def Con from 0.00310739 to 0.00310739
Heightened Def Con from 0.00310739 to 0.00310739
Heightened Def Con from 0.00311468 to 0.00311468
Heightened Def Con from 0.00311471 to 0.00311471
Heightened Def Con from 0.00312762 to 0.00312762
Heightened Def Con from 0.00312762 to 0.00312762
Heightened Def Con from 0.00312762 to 0.00312762
Heightened Def Con from 0.00312764 to 0.00312764
Heightened Def Con from 0.00313449 to 0.00313449
Heightened Def Con from 0.00314788 to 0.00314788
Heightened Def Con from 0.0031479 to 0.0031479
Heightened Def Con from 0.00315431 +++++++++++++++++++++++++to 0.00315431
Heightened Def Con from 0.00315431 ++++++++++++++to 0.00315431
Heightened Def Con from 0.00315431 +++++++++++to 0.00315431
Heightened Def Con from 0.00315431 to 0.00315431
Heightened Def Con from 0.00315431 to 0.00315432
Heightened Def Con from 0.00315432 to 0.00315432
Heightened Def Con from 0.00315432 to 0.00315432
Heightened Def Con from 0.00315432 to 0.00315432
Heightened Def Con from 0.00316814 ++++++++++++++++++++++++++to 0.00316814
Heightened Def Con from 0.00316814 to 0.00316814
Heightened Def Con from 0.00316816 to 0.00316816
Heightened Def Con from 0.00317414 +++++++++++++++++++++++++to 0.00317414
Heightened Def Con from 0.00317414 ++++++++++++++to 0.00317414
Heightened Def Con from 0.00317414 +++++++++++to 0.00317414
Heightened Def Con from 0.00317414 to 0.00317414
Heightened Def Con from 0.00317414 to 0.00317414
Heightened Def Con from 0.00317414 to 0.00317414
Heightened Def Con from 0.00317414 to 0.00317414
Heightened Def Con from 0.00317414 to 0.00317414
Heightened Def Con from 0.00318839 to 0.00318839
Heightened Def Con from 0.00318841 ++++++++++++++++++++++++++to 0.00318842
Heightened Def Con from 0.00318842 +++++++++++++to 0.00318842
Heightened Def Con from 0.00318842 +++++++++to 0.00318842
Heightened Def Con from 0.00318842 to 0.00318842
Heightened Def Con from 0.00318842 to 0.00318842
Heightened Def Con from 0.00319397 ++++++++++++++++++++++++to 0.00319397
Heightened Def Con from 0.00319397 ++++++++++++to 0.00319397
Heightened Def Con from 0.00319397 ++++++++to 0.00319397
Heightened Def Con from 0.00319397 to 0.00319397
Heightened Def Con from 0.00319397 to 0.00319397
Heightened Def Con from 0.00320863 ++++++++++++++++++++++++++to 0.00320863
Heightened Def Con from 0.00320863 +++++++++to 0.00320863
Heightened Def Con from 0.00320863 to 0.00320863
Heightened Def Con from 0.00321381 +to 0.00321381
Heightened Def Con from 0.00322886 to 0.00322886
Heightened Def Con from 0.00322888 to 0.00322888
Heightened Def Con from 0.00322888 to 0.00322888
Heightened Def Con from 0.00323128 to 0.00323128
Heightened Def Con from 0.00323366 to 0.00323366
Heightened Def Con from 0.00323366 to 0.00323366
Heightened Def Con from 0.00323369 to 0.00323369
Heightened Def Con from 0.00323369 to 0.00323369
Heightened Def Con from 0.00324907 to 0.00324907
Heightened Def Con from 0.00324907 +to 0.00324908
Heightened Def Con from 0.0032491 ++++++++++++++++++++++++++to 0.0032491
[...]
Heightened Def Con from 0.00436478 +++++++++++++to 0.00436478
Heightened Def Con from 0.00436478 ++++++++++to 0.00436478
Heightened Def Con from 0.00436478 +++++++to 0.00436478
Heightened Def Con from 0.00436478 to 0.00436479
Heightened Def Con from 0.00436479 to 0.00436479
Heightened Def Con from 0.00438201 to 0.00438201
Heightened Def Con from 0.00438201 to 0.00438201
Heightened Def Con from 0.00438204 +++++++++++++++++++++++++to 0.00438204
Heightened Def Con from 0.00438204 ++++++++++++++to 0.00438204
Heightened Def Con from 0.00438204 +++++++++++to 0.00438204
Heightened Def Con from 0.00438204 +++++++++++to 0.00438204
Heightened Def Con from 0.00438204 ++++++++++to 0.00438204
Heightened Def Con from 0.00438204 to 0.00438204
Heightened Def Con from 0.0043847 to 0.0043847
Heightened Def Con from 0.0043847 to 0.0043847
Heightened Def Con from 0.0043847 to 0.0043847
Heightened Def Con from 0.00438472 to 0.00438472
Heightened Def Con from 0.00440213 to 0.00440213
Heightened Def Con from 0.00440215 to 0.00440215
Heightened Def Con from 0.00440465 to 0.00440466
Heightened Def Con from 0.00440468 ++++++++++++++++++++++++to 0.00440468
Heightened Def Con from 0.00440468 ++++++++++++to 0.00440468
Heightened Def Con from 0.00440468 +++++++++++to 0.00440468
Heightened Def Con from 0.00440468 to 0.00440468
Heightened Def Con from 0.00442223 to 0.00442223
Heightened Def Con from 0.00442223 to 0.00442223
Heightened Def Con from 0.00442226 to 0.00442226
Heightened Def Con from 0.0044235 to 0.0044235
Heightened Def Con from 0.00442462 +to 0.00442462
Heightened Def Con from 0.00442462 to 0.00442463
Heightened Def Con from 0.00444232 +++++++++++++++++++++++++to 0.00444232
Heightened Def Con from 0.00444232 ++++++++++++++to 0.00444232
Heightened Def Con from 0.00444232 +++++++++++to 0.00444232
Heightened Def Con from 0.00444232 +++++++++to 0.00444232
Heightened Def Con from 0.00444232 to 0.00444233
Heightened Def Con from 0.0044624 to 0.0044624
Heightened Def Con from 0.00446242 to 0.00446242
Heightened Def Con from 0.00446242 to 0.00446242
Heightened Def Con from 0.00446462 +++++++++++++++++++++++to 0.00446462
Heightened Def Con from 0.00446462 +++++++++to 0.00446462
Heightened Def Con from 0.00446462 to 0.00446462
Heightened Def Con from 0.00446464 +to 0.00446464
Heightened Def Con from 0.00446464 to 0.00446464
Heightened Def Con from 0.00448245 to 0.00448245
Heightened Def Con from 0.00448245 to 0.00448245
Heightened Def Con from 0.00448248 ++++++++++++++++++++++++to 0.00448248
Heightened Def Con from 0.00448248 +++++++++++++to 0.00448248
Heightened Def Con from 0.00448248 +++++++++to 0.00448248
Heightened Def Con from 0.00448248 to 0.00448248
Heightened Def Con from 0.00448248 to 0.00448248
Heightened Def Con from 0.00448463 +to 0.00448463
Heightened Def Con from 0.00448463 to 0.00448463
Heightened Def Con from 0.00448466 +++++++++++++++++++++++to 0.00448466
Heightened Def Con from 0.00448466 to 0.00448466
Heightened Def Con from 0.00448466 to 0.00448466
Heightened Def Con from 0.00448466 to 0.00448466
Heightened Def Con from 0.00448466 to 0.00448466
Heightened Def Con from 0.00449355 to 0.00449355
Heightened Def Con from 0.00450249 to 0.00450249
Heightened Def Con from 0.00450466 +to 0.00450466
Heightened Def Con from 0.00450469 to 0.00450469
Heightened Def Con from 0.00452252 to 0.00452252
Heightened Def Con from 0.00452254 to 0.00452255
Heightened Def Con from 0.00452471 +++++++++++++++++++++++to 0.00452471
Heightened Def Con from 0.00452471 +++++++++to 0.00452471
Heightened Def Con from 0.00452473 +++++++++++++++++++++++to 0.00452473
Heightened Def Con from 0.00452473 to 0.00452473
Heightened Def Con from 0.00452473 ++to 0.00452473
Heightened Def Con from 0.00452473 ++++++++++++++++++++++++to 0.00452473
Heightened Def Con from 0.00452473 ++++++++++++to 0.00452473
Heightened Def Con from 0.00452473 +++++++++++to 0.00452473
Heightened Def Con from 0.00452473 +++++++++++to 0.00452473
Heightened Def Con from 0.00452473 +++++++++++to 0.00452473
Heightened Def Con from 0.00452473 +++++++++++to 0.00452473
Heightened Def Con from 0.00452473 to 0.00452473
Heightened Def Con from 0.00454253 to 0.00454253
Heightened Def Con from 0.00454253 to 0.00454253
Heightened Def Con from 0.00454477 to 0.00454477
Heightened Def Con from 0.00454477 to 0.00454477
Heightened Def Con from 0.00454479 to 0.00454479
Heightened Def Con from 0.00454479 to 0.0045448
Heightened Def Con from 0.00456255 to 0.00456255
Heightened Def Con from 0.00456255 to 0.00456255
Heightened Def Con from 0.00456485 ++++++++++++++++++++++to 0.00456485
Heightened Def Con from 0.00456485 +++++++++++to 0.00456485
Heightened Def Con from 0.00456485 to 0.00456485
Heightened Def Con from 0.00456487 +++++++++++++++++++++++to 0.00456487
Heightened Def Con from 0.00456487 +++++++++++++to 0.00456487
Heightened Def Con from 0.00456487 ++++++++++to 0.00456487
Heightened Def Con from 0.00456487 +++++++to 0.00456487
Heightened Def Con from 0.0045825 to 0.0045825
Heightened Def Con from 0.0045825 to 0.00458251
Heightened Def Con from 0.00458253 to 0.00458253
Heightened Def Con from 0.00458494 to 0.00458494
Heightened Def Con from 0.00458497 ++++++++++++++++++++++++to 0.00458497
Heightened Def Con from 0.00458497 ++++++++++++to 0.00458497
Heightened Def Con from 0.00458497 +++++++++++to 0.00458497
Heightened Def Con from 0.00458497 +++++++++++to 0.00458497
Heightened Def Con from 0.00458497 +++++++++++to 0.00458497
Heightened Def Con from 0.00458497 +++++++++++to 0.00458497
Heightened Def Con from 0.00458497 ++++++++++to 0.00458497
Heightened Def Con from 0.00458497 ++++++++++to 0.00458497
Heightened Def Con from 0.00458497 +++++to 0.00458497
Heightened Def Con from 0.00458497 to 0.00458497
Heightened Def Con from 0.00460247 +++++++++++++++++++++++++to 0.00460247
Heightened Def Con from 0.00460247 +++++++++++++++to 0.00460247
Heightened Def Con from 0.00460247 ++++++++++++to 0.00460247
Heightened Def Con from 0.00460247 ++++++++++++to 0.00460247
Heightened Def Con from 0.00460247 to 0.00460248
Heightened Def Con from 0.00460508 to 0.00460508
Heightened Def Con from 0.00460508 ++++++++++++++++++++++++to 0.00460508
Heightened Def Con from 0.00460508 ++++++++++++to 0.00460508
Heightened Def Con from 0.00460508 +++++++++++to 0.00460508
Heightened Def Con from 0.00460508 ++++++++++to 0.00460508
Heightened Def Con from 0.00460508 ++++++++++to 0.00460508
Heightened Def Con from 0.00460508 ++++++++to 0.00460508
Heightened Def Con from 0.00460508 to 0.00460508
Heightened Def Con from 0.00460508 to 0.00460508
Heightened Def Con from 0.00462242 +++++++++++++++++++++++++to 0.00462243
Heightened Def Con from 0.00462243 +++++++++++++++to 0.00462243
Heightened Def Con from 0.00462243 ++++++++++++to 0.00462243
Heightened Def Con from 0.00462243 ++++++++++++to 0.00462243
Heightened Def Con from 0.00462243 to 0.00462243
Heightened Def Con from 0.00462518 to 0.00462518
Heightened Def Con from 0.00462521 ++++++++++++++++++++++++to 0.00462521
Heightened Def Con from 0.00462521 ++++++++++++to 0.00462521
Heightened Def Con from 0.00462521 +++++++++++to 0.00462521
Heightened Def Con from 0.00462521 +++++++++++to 0.00462521
Heightened Def Con from 0.00462521 +++++++++++to 0.00462521
Heightened Def Con from 0.00462521 +++++++++++to 0.00462521
Heightened Def Con from 0.00462521 +++++++++++to 0.00462521
Heightened Def Con from 0.00462521 to 0.00462521
Heightened Def Con from 0.00464236 to 0.00464236
Heightened Def Con from 0.00464236 to 0.00464237
Heightened Def Con from 0.00464239 to 0.00464239
Heightened Def Con from 0.00464239 to 0.00464239
Heightened Def Con from 0.00464239 to 0.00464239
Heightened Def Con from 0.00464532 +++++++++++++++++++++++to 0.00464532
Heightened Def Con from 0.00464532 +++++++++++to 0.00464532
Heightened Def Con from 0.00464532 to 0.00464532
Heightened Def Con from 0.00464534 to 0.00464534
Heightened Def Con from 0.00464534 to 0.00464534
Heightened Def Con from 0.00464534 to 0.00464534
Heightened Def Con from 0.00464534 to 0.00464534
Heightened Def Con from 0.00466229 to 0.00466229
Heightened Def Con from 0.00466229 to 0.00466229
Heightened Def Con from 0.00466231 +++++++++++++++++++++++++to 0.00466231
Heightened Def Con from 0.00466231 ++++++++++++++to 0.00466231
Heightened Def Con from 0.00466231 +++++++++++to 0.00466231
Heightened Def Con from 0.00466231 +++++++++++to 0.00466231
Heightened Def Con from 0.00466231 ++++++++++to 0.00466231
Heightened Def Con from 0.00466231 to 0.00466231
Heightened Def Con from 0.00466231 to 0.00466232
Heightened Def Con from 0.00466547 ++++++++++++++++++++++++to 0.00466547
Heightened Def Con from 0.00466547 ++++++++++to 0.00466548
Heightened Def Con from 0.00466548 to 0.00466548
Heightened Def Con from 0.00466549 ++++++++++++++++++++++++to 0.0046655
Heightened Def Con from 0.0046655 +++++++++++++to 0.0046655
Heightened Def Con from 0.0046655 +++++++++to 0.0046655
Heightened Def Con from 0.0046655 to 0.0046655
Heightened Def Con from 0.0046822 ++++++++++++++++++++++++to 0.0046822
Heightened Def Con from 0.0046822 +++++++++++to 0.0046822
Heightened Def Con from 0.0046822 to 0.0046822
Heightened Def Con from 0.00468222 +++++++++++++++++++++++++to 0.00468222
Heightened Def Con from 0.00468222 ++++++++++++++to 0.00468223
Heightened Def Con from 0.00468223 +++++++++++to 0.00468223
Heightened Def Con from 0.00468223 +++++++++++to 0.00468223
Heightened Def Con from 0.00468223 ++++++++++to 0.00468223
Heightened Def Con from 0.00468223 to 0.00468223
Heightened Def Con from 0.00468223 to 0.00468223
Heightened Def Con from 0.00468398 to 0.00468398
Heightened Def Con from 0.00468564 to 0.00468564
Heightened Def Con from 0.00468567 +to 0.00468567
Heightened Def Con from 0.00468567 to 0.00468567
Heightened Def Con from 0.0047021 ++++++++++++++++++++++++to 0.0047021
Heightened Def Con from 0.0047021 +++++++++++to 0.0047021
Heightened Def Con from 0.0047021 to 0.0047021
Heightened Def Con from 0.0047021 to 0.0047021
Heightened Def Con from 0.00470212 to 0.00470212
Heightened Def Con from 0.00470582 to 0.00470582
Heightened Def Con from 0.00470582 to 0.00470582
Heightened Def Con from 0.00470585 to 0.00470585
Heightened Def Con from 0.00472198 ++++++++++++++++++++++++to 0.00472198
Heightened Def Con from 0.00472198 +++++++++++to 0.00472198
Heightened Def Con from 0.00472198 to 0.00472198
Heightened Def Con from 0.00472198 to 0.00472198
Heightened Def Con from 0.004722 to 0.004722
Heightened Def Con from 0.004722 to 0.00472201
Heightened Def Con from 0.00472601 ++++++++++++++++++++++++to 0.00472601
Heightened Def Con from 0.00472601 +++++++++++to 0.00472602
Heightened Def Con from 0.00472602 to 0.00472602
Heightened Def Con from 0.00472603 to 0.00472603
Heightened Def Con from 0.00472603 ++++++++++++++++++++++++to 0.00472603
Heightened Def Con from 0.00472603 +++++++++++++to 0.00472604
Heightened Def Con from 0.00472604 +++++++++to 0.00472604
Heightened Def Con from 0.00472604 to 0.00472604
Heightened Def Con from 0.00474185 +++++++++++++++++++++++++to 0.00474186
Heightened Def Con from 0.00474186 +++++++++++++++to 0.00474186
Heightened Def Con from 0.00474186 ++++++++++++to 0.00474186
Heightened Def Con from 0.00474186 +++++++++++to 0.00474186
Heightened Def Con from 0.00474186 +++++++++++to 0.00474186
Heightened Def Con from 0.00474186 to 0.00474186
Heightened Def Con from 0.00474186 to 0.00474186
Heightened Def Con from 0.00474186 to 0.00474186
Heightened Def Con from 0.00474622 to 0.00474622
Heightened Def Con from 0.00474625 ++++++++++++++++++++++++to 0.00474625
Heightened Def Con from 0.00474625 +++++++++++++to 0.00474625
Heightened Def Con from 0.00474625 +++++++++to 0.00474625
Heightened Def Con from 0.00474625 to 0.00474625
Heightened Def Con from 0.00474625 to 0.00474625
Heightened Def Con from 0.00476172 to 0.00476172
Heightened Def Con from 0.00476646 to 0.00476646
Heightened Def Con from 0.00476646 to 0.00476646
Heightened Def Con from 0.00476646 to 0.00476646
Heightened Def Con from 0.00478157 to 0.00478157
Heightened Def Con from 0.0047816 to 0.0047816
Heightened Def Con from 0.0047816 +++++++++++++++++++++++++to 0.0047816
Heightened Def Con from 0.0047816 +++++++++++++++to 0.0047816
Heightened Def Con from 0.0047816 ++++++++++++to 0.0047816
Heightened Def Con from 0.0047816 +++++++++++to 0.0047816
Heightened Def Con from 0.0047816 +++++++++++to 0.0047816
Heightened Def Con from 0.0047816 to 0.0047816
Heightened Def Con from 0.0047816 to 0.0047816
Heightened Def Con from 0.00478667 to 0.00478667
Heightened Def Con from 0.00478667 to 0.00478667
Heightened Def Con from 0.00478669 ++++++++++++++++++++++++to 0.00478669
Heightened Def Con from 0.00478669 +++++++++++++to 0.00478669
Heightened Def Con from 0.00478669 +++++++++to 0.00478669
Heightened Def Con from 0.00478669 to 0.0047867
Heightened Def Con from 0.00480142 to 0.00480142
Heightened Def Con from 0.00480144 +++++++++++++++++++++++++to 0.00480144
Heightened Def Con from 0.00480144 +++++++++++++++to 0.00480144
Heightened Def Con from 0.00480144 ++++++++++++to 0.00480144
Heightened Def Con from 0.00480144 +++++++++++to 0.00480144
Heightened Def Con from 0.00480144 +++++++++++to 0.00480144
Heightened Def Con from 0.00480144 to 0.00480144
Heightened Def Con from 0.00480144 to 0.00480144
Heightened Def Con from 0.0048069 ++++++++++++++++++++++++++to 0.0048069
Heightened Def Con from 0.0048069 to 0.00480691
Heightened Def Con from 0.00480693 to 0.00480693
Heightened Def Con from 0.00482125 +++++++++++++++++++++++++to 0.00482125
Heightened Def Con from 0.00482125 +++++++++++++++to 0.00482126
Heightened Def Con from 0.00482126 ++++++++++++to 0.00482126
Heightened Def Con from 0.00482126 +++++++++++to 0.00482126
Heightened Def Con from 0.00482126 +++++++++++to 0.00482126
Heightened Def Con from 0.00482126 to 0.00482126
Heightened Def Con from 0.00482126 to 0.00482126
Heightened Def Con from 0.00482126 to 0.00482126
Heightened Def Con from 0.00482715 ++++++++++++++++++++++++++to 0.00482715
Heightened Def Con from 0.00482715 to 0.00482715
Heightened Def Con from 0.00482718 ++++++++++++++++++++++++++to 0.00482718
Heightened Def Con from 0.00482718 to 0.00482718
Heightened Def Con from 0.00484108 +++++++++++++++++++++++++to 0.00484108
Heightened Def Con from 0.00484108 +++++++++++++++to 0.00484108
Heightened Def Con from 0.00484108 ++++++++++++to 0.00484108
Heightened Def Con from 0.00484108 ++++++++++++to 0.00484108
Heightened Def Con from 0.00484108 to 0.00484109
Heightened Def Con from 0.00484741 ++++++++++++++++++++++++++to 0.00484741
Heightened Def Con from 0.00484741 +++++to 0.00484741
Heightened Def Con from 0.00484744 ++++++++++++++++++++++++++to 0.00484744
Heightened Def Con from 0.00484744 +++++++++++++++++++to 0.00484744
Heightened Def Con from 0.00484744 ++++++++++++++++++to 0.00484744
Heightened Def Con from 0.00484744 +++++++++++++++++to 0.00484744
Heightened Def Con from 0.00484744 ++++++++++++++++to 0.00484744
Heightened Def Con from 0.00484744 ++++++++++++++to 0.00484744
Heightened Def Con from 0.00484744 to 0.00484744
Heightened Def Con from 0.00484744 to 0.00484744
Heightened Def Con from 0.00484744 +++++++++++++++++++++++to 0.00484744
Heightened Def Con from 0.00484744 +++++++++++++to 0.00484744
Heightened Def Con from 0.00484744 ++++++++++to 0.00484744
Heightened Def Con from 0.00484744 to 0.00484744
Heightened Def Con from 0.0048609 +to 0.0048609
Heightened Def Con from 0.00486093 +++++++++++++++++++++++++to 0.00486093
Heightened Def Con from 0.00486093 +++++++++++++++to 0.00486093
Heightened Def Con from 0.00486093 +++++++++++++to 0.00486093
Heightened Def Con from 0.00486093 +++++++++++++to 0.00486093
Heightened Def Con from 0.00486093 +++++++++++++to 0.00486093
Heightened Def Con from 0.00486093 ++++++++++++to 0.00486093
Heightened Def Con from 0.00486093 to 0.00486093
Heightened Def Con from 0.00486768 to 0.00486768
Heightened Def Con from 0.00486768 to 0.00486768
Heightened Def Con from 0.00486768 ++++++++++++++++++++++++++to 0.00486768
Heightened Def Con from 0.00486768 to 0.00486768
Heightened Def Con from 0.0048677 to 0.0048677
Heightened Def Con from 0.0048677 +to 0.00486771
Heightened Def Con from 0.00488072 to 0.00488072
Heightened Def Con from 0.00488072 to 0.00488072
Heightened Def Con from 0.00488074 +++++++++++++++++++++++++to 0.00488075
Heightened Def Con from 0.00488075 +++++++++++++++to 0.00488075
Heightened Def Con from 0.00488075 +++++++++++++to 0.00488075
Heightened Def Con from 0.00488075 +++++++++++++to 0.00488075
Heightened Def Con from 0.00488075 +++++++++++++to 0.00488075
Heightened Def Con from 0.00488075 ++++++++++++to 0.00488075
Heightened Def Con from 0.00488075 to 0.00488075
Heightened Def Con from 0.00488795 +to 0.00488795
Heightened Def Con from 0.00488798 ++++++++++++++++++++++++to 0.00488798
Heightened Def Con from 0.00488798 to 0.00488798
Heightened Def Con from 0.00490053 +++++++++++++++++++++++++to 0.00490054
Heightened Def Con from 0.00490054 +++++++++++++++to 0.00490054
Heightened Def Con from 0.00490054 ++++++++++++to 0.00490054
Heightened Def Con from 0.00490054 ++++++++++++to 0.00490054
Heightened Def Con from 0.00490054 to 0.00490054
Heightened Def Con from 0.00490054 to 0.00490054
Heightened Def Con from 0.00490823 to 0.00490823
Heightened Def Con from 0.00490823 to 0.00490823
Heightened Def Con from 0.00490826 to 0.00490826
Heightened Def Con from 0.00492034 to 0.00492034
Heightened Def Con from 0.00492034 ++to 0.00492034
Heightened Def Con from 0.00492034 to 0.00492034
Heightened Def Con from 0.00492036 to 0.00492036
Heightened Def Con from 0.00492851 to 0.00492851
Heightened Def Con from 0.00492851 to 0.00492851
Heightened Def Con from 0.00492853 ++++++++++++++++++++++++to 0.00492853
Heightened Def Con from 0.00492853 to 0.00492853
Heightened Def Con from 0.00494013 +++++++++++++++++++++++++to 0.00494014
Heightened Def Con from 0.00494014 +++++++++++++++to 0.00494014
Heightened Def Con from 0.00494014 ++++++++++++to 0.00494014
Heightened Def Con from 0.00494014 ++++++++++++to 0.00494014
Heightened Def Con from 0.00494014 to 0.00494014
Heightened Def Con from 0.00494014 to 0.00494014
Heightened Def Con from 0.00494879 to 0.00494879
Heightened Def Con from 0.00494882 +to 0.00494882
Heightened Def Con from 0.00494882 to 0.00494882
Heightened Def Con from 0.00494882 to 0.00494882
Heightened Def Con from 0.00495993 to 0.00495993
Heightened Def Con from 0.00495996 +++++++++++++++++++++++++to 0.00495996
Heightened Def Con from 0.00495996 +++++++++++++++to 0.00495996
Heightened Def Con from 0.00495996 ++++++++++++to 0.00495996
Heightened Def Con from 0.00495996 ++++++++++++to 0.00495996
Heightened Def Con from 0.00495996 ++++++++++to 0.00495997
Heightened Def Con from 0.00497973 ++++++++++++++++++++++++to 0.00497973
Heightened Def Con from 0.00497973 ++++++++++++to 0.00497973
Heightened Def Con from 0.00497973 to 0.00497973
Heightened Def Con from 0.00497975 to 0.00497976
Heightened Def Con from 0.00498937 +++++++++++++++++++++++to 0.00498937
Heightened Def Con from 0.00498937 ++++++++++++to 0.00498937
Heightened Def Con from 0.00498937 to 0.00498937
Heightened Def Con from 0.00498939 to 0.00498939
Heightened Def Con from 0.00498939 to 0.00498939
Heightened Def Con from 0.00498939 ++++++++++++++++++++++++to 0.00498939
Heightened Def Con from 0.00498939 +++++++++++++to 0.00498939
Heightened Def Con from 0.00498939 +++++++++to 0.00498939
Heightened Def Con from 0.00499952 to 0.00499952
Heightened Def Con from 0.00499955 to 0.00499955
Heightened Def Con from 0.00499955 to 0.00499955

Date: Wed Aug 11 11:10:43 2021
Total elapsed time: 98.984 seconds.

tnom = 27
temp = 27
method = modified trap
totiter = 2769420
traniter = 2769384
tranpoints = 392359
accept = 175062
rejected = 234050
matrix size = 316
fillins = 310
solver = Normal
Thread vector: 112.6/21.4[4] 4.7/4.8[1] 9.5/5.5[4] 6.8/3.0[4]  2592/500
Matrix Compiler1: 26.38 KB object code size  10.5/5.2/[2.1]
Matrix Compiler2: off  [4.0]/7.2/9.2

