Circuit: * Z:\home\niels\Desktop\Uni_Notes\Tri 2\ECEN405\Class-D_Amplifier\spice_sim\SPWM_Generator\SPWM_Generator.asc

Direct Newton iteration for .op point succeeded.

Date: Wed Aug 04 13:06:57 2021
Total elapsed time: 0.530 seconds.

tnom = 27
temp = 27
method = modified trap
totiter = 36875
traniter = 36866
tranpoints = 14855
accept = 10891
rejected = 3964
matrix size = 18
fillins = 10
solver = Normal
Matrix Compiler1: 1.06 KB object code size  1.3/0.8/[0.5]
Matrix Compiler2: off  [0.8]/1.1/0.9

