Circuit: * Z:\home\niels\Desktop\Uni_Notes\Tri 2\ECEN405\Class-D_Amplifier\spice_sim\SPWM_Generator\SPWM_Generator.asc

u1:c_cc3: both pins shorted together -- ignoring.
u2:c_cc3: both pins shorted together -- ignoring.
WARNING: Node NC_01 is floating.
WARNING: Node NC_02 is floating.

WARNING: Less than two connections to node NC_01.  This node is used by R6.
WARNING: Less than two connections to node NC_02.  This node is used by R5.
Direct Newton iteration for .op point succeeded.
Heightened Def Con from 1.43232e-005 to 1.43232e-005
Heightened Def Con from 1.43232e-005 to 1.43262e-005
Heightened Def Con from 1.43596e-005 +to 1.43596e-005
Heightened Def Con from 1.43596e-005 to 1.43626e-005
Heightened Def Con from 1.72197e-005 to 1.72208e-005
Heightened Def Con from 1.73031e-005 to 1.73043e-005
Heightened Def Con from 2.73778e-005 +++++++++++++++++++++++to 2.7378e-005
Heightened Def Con from 2.7378e-005 ++++++++++++to 2.73795e-005
Heightened Def Con from 2.73795e-005 to 2.73835e-005
Heightened Def Con from 4.43959e-005 to 4.43959e-005
Heightened Def Con from 4.43959e-005 to 4.4397e-005
Heightened Def Con from 5.18778e-005 to 5.18778e-005
Heightened Def Con from 5.18778e-005 to 5.18778e-005
Heightened Def Con from 5.18778e-005 to 5.18778e-005
Heightened Def Con from 5.18778e-005 to 5.18789e-005
Heightened Def Con from 5.1917e-005 to 5.1917e-005
Heightened Def Con from 5.1917e-005 to 5.1917e-005
Heightened Def Con from 5.6633e-005 to 5.6633e-005
Heightened Def Con from 5.6633e-005 to 5.6636e-005
Heightened Def Con from 6.1453e-005 to 6.14541e-005
Heightened Def Con from 6.8566e-005 to 6.8566e-005
Heightened Def Con from 6.8566e-005 to 6.8566e-005
Heightened Def Con from 6.8566e-005 to 6.8566e-005
Heightened Def Con from 6.8566e-005 to 6.8566e-005
Heightened Def Con from 6.86052e-005 ++++++++++++++++++++++++++to 6.86062e-005
Heightened Def Con from 6.86062e-005 +++++++++++++++++++to 6.86062e-005
Heightened Def Con from 6.86062e-005 +++++++++++++++++to 6.86062e-005
Heightened Def Con from 6.86062e-005 ++++++++++++++++to 6.86062e-005
Heightened Def Con from 6.86062e-005 ++++++++++++++++to 6.86062e-005
Heightened Def Con from 6.86062e-005 ++++++++++++++++to 6.86062e-005
Heightened Def Con from 6.86062e-005 +++++++++++++++to 6.86062e-005
Heightened Def Con from 6.86062e-005 ++++++++++++++to 6.86062e-005
Heightened Def Con from 6.86062e-005 to 6.86062e-005
Heightened Def Con from 6.86062e-005 to 6.86063e-005
Heightened Def Con from 6.86063e-005 to 6.86063e-005
Heightened Def Con from 6.86063e-005 to 6.86076e-005
Heightened Def Con from 6.86169e-005 to 6.8618e-005
Heightened Def Con from 7.84287e-005 +++++++++++++++++++++++++to 7.84338e-005
Heightened Def Con from 7.84338e-005 +++++++++++++++to 7.84352e-005
Heightened Def Con from 7.84352e-005 ++++++++++++to 7.84352e-005
Heightened Def Con from 7.84352e-005 +++++++++++to 7.84352e-005
Heightened Def Con from 7.84352e-005 ++++++++++to 7.84352e-005
Heightened Def Con from 7.84352e-005 +++++++++to 7.84352e-005
Heightened Def Con from 7.84352e-005 to 7.84352e-005
Heightened Def Con from 7.84352e-005 to 7.84392e-005
Heightened Def Con from 7.8478e-005 to 7.8478e-005
Heightened Def Con from 7.8478e-005 +++++++++++++++++++++++to 7.84781e-005
Heightened Def Con from 7.84781e-005 ++++++++++++++to 7.84796e-005
Heightened Def Con from 7.84796e-005 +++++++++++to 7.84796e-005
Heightened Def Con from 7.84796e-005 ++++++++to 7.84796e-005
Heightened Def Con from 7.84796e-005 to 7.84796e-005
Heightened Def Con from 8.19134e-005 to 8.19134e-005
Heightened Def Con from 8.19134e-005 to 8.19164e-005
Heightened Def Con from 8.52632e-005 to 8.52643e-005
Heightened Def Con from 8.53024e-005 ++++++++++++++++++++++++++to 8.53034e-005
Heightened Def Con from 8.53034e-005 +++++++++++++++++++to 8.53034e-005
Heightened Def Con from 8.53034e-005 +++++++++++++++++to 8.53034e-005
Heightened Def Con from 8.53034e-005 +++++++++++++++to 8.53034e-005
Heightened Def Con from 8.53034e-005 +++++++++++++++to 8.53034e-005
Heightened Def Con from 8.53034e-005 ++++++++++++++to 8.53034e-005
Heightened Def Con from 8.53034e-005 to 8.53034e-005
Heightened Def Con from 8.53034e-005 to 8.53034e-005
Heightened Def Con from 8.53034e-005 to 8.53034e-005
Heightened Def Con from 8.53034e-005 to 8.53048e-005
Heightened Def Con from 8.53049e-005 ++++++++++++++++++++++++++to 8.5306e-005
Heightened Def Con from 8.5306e-005 +++++++++++++++++++to 8.5306e-005
Heightened Def Con from 8.5306e-005 +++++++++++++++++to 8.5306e-005
Heightened Def Con from 8.5306e-005 ++++++++++++++++to 8.5306e-005
Heightened Def Con from 8.5306e-005 ++++++++++++++++to 8.5306e-005
Heightened Def Con from 8.5306e-005 ++++++++++++++to 8.5306e-005
Heightened Def Con from 8.5306e-005 ++++++++++++to 8.5306e-005
Heightened Def Con from 8.5306e-005 +++++++++++to 8.5306e-005
Heightened Def Con from 8.5306e-005 +++++++++to 8.5306e-005
Heightened Def Con from 8.5306e-005 to 8.5306e-005
Heightened Def Con from 8.5306e-005 ++to 8.5306e-005
Heightened Def Con from 8.5306e-005 to 8.5306e-005
Heightened Def Con from 8.5306e-005 to 8.5306e-005
Heightened Def Con from 8.53061e-005 +to 8.53061e-005
Heightened Def Con from 8.53061e-005 ++to 8.53061e-005
Heightened Def Con from 8.53061e-005 to 8.53111e-005
Heightened Def Con from 8.53228e-005 to 8.53258e-005
Heightened Def Con from 9.54489e-005 to 9.54519e-005
Heightened Def Con from 9.54889e-005 to 9.54889e-005
Heightened Def Con from 9.54889e-005 to 9.54901e-005
Heightened Def Con from 0.000101959 ++++++++++++++++++++++++++to 0.000101959
Heightened Def Con from 0.000101959 +++++++++to 0.000101961
Heightened Def Con from 0.000112459 to 0.00011246
Heightened Def Con from 0.000112499 ++++++++++++++++++++++++to 0.000112499
Heightened Def Con from 0.000112499 ++++++++++++to 0.000112499
Heightened Def Con from 0.000112499 ++++++++++++to 0.000112499
Heightened Def Con from 0.000112499 ++++++++++++to 0.000112499
Heightened Def Con from 0.000112499 ++++++++++to 0.000112499
Heightened Def Con from 0.000112499 ++++++++to 0.000112499
Heightened Def Con from 0.000112499 to 0.000112499
Heightened Def Con from 0.000112499 to 0.000112499
Heightened Def Con from 0.000115609 to 0.000115609
Heightened Def Con from 0.000118654 to 0.000118655
Heightened Def Con from 0.000118693 to 0.000118696
Heightened Def Con from 0.000129466 to 0.000129469
Heightened Def Con from 0.000129506 +to 0.000129506
Heightened Def Con from 0.000132468 to 0.000132468
Heightened Def Con from 0.000135354 to 0.000135354
Heightened Def Con from 0.000135354 +to 0.000135354
Heightened Def Con from 0.000135354 to 0.000135355
Heightened Def Con from 0.000135393 to 0.000135393
Heightened Def Con from 0.000135393 to 0.000135393
Heightened Def Con from 0.000146468 +++++++++++++++++++++++to 0.000146468
Heightened Def Con from 0.000146468 ++++++++++++to 0.000146469
Heightened Def Con from 0.000146469 to 0.000146473
Heightened Def Con from 0.000149469 to 0.000149471
Heightened Def Con from 0.000152056 to 0.000152056
Heightened Def Con from 0.000152095 to 0.000152097
Heightened Def Con from 0.00015794 to 0.000157942
Heightened Def Con from 0.000163469 to 0.00016347
Heightened Def Con from 0.000163509 to 0.000163509
Heightened Def Con from 0.000163509 to 0.000163509
Heightened Def Con from 0.000163509 to 0.00016351
Heightened Def Con from 0.000166168 to 0.000166168
Heightened Def Con from 0.000166168 to 0.000166171
Heightened Def Con from 0.000168763 ++++++++++++++++++++++++++to 0.000168763
Heightened Def Con from 0.000168763 +++++++to 0.000168763
Heightened Def Con from 0.000168763 to 0.000168763
Heightened Def Con from 0.000168802 to 0.000168805
Heightened Def Con from 0.000180463 +++++++++++++++++++++++++to 0.000180468
Heightened Def Con from 0.000180468 +++++++++++++++to 0.000180469
Heightened Def Con from 0.000180469 ++++++++++++to 0.000180469
Heightened Def Con from 0.000180469 +++++++++++to 0.000180469
Heightened Def Con from 0.000180469 ++++++++++to 0.000180469
Heightened Def Con from 0.000180469 +++++++++to 0.000180469
Heightened Def Con from 0.000180469 to 0.000180469
Heightened Def Con from 0.000180469 to 0.000180469
Heightened Def Con from 0.000180469 to 0.00018047
Heightened Def Con from 0.000180499 to 0.0001805
Heightened Def Con from 0.000180512 +++++++++++++++++++++++++to 0.000180518
Heightened Def Con from 0.000180518 ++++++++++++++++to 0.000180519
Heightened Def Con from 0.000180519 +++++++++++++to 0.000180519
Heightened Def Con from 0.000180519 +++++++++++++to 0.000180519
Heightened Def Con from 0.000180519 +++++++++++++to 0.000180519
Heightened Def Con from 0.000180519 +++++++++++++to 0.000180519
Heightened Def Con from 0.000180519 to 0.00018052
Heightened Def Con from 0.000185484 +++++++++++++++++++++++to 0.000185484
Heightened Def Con from 0.000185484 +++++++++++++to 0.000185485
Heightened Def Con from 0.000185485 ++++++++to 0.000185487
Heightened Def Con from 0.000185523 to 0.000185523
Heightened Def Con from 0.000185523 to 0.000185523
Heightened Def Con from 0.000185523 to 0.000185525
Heightened Def Con from 0.000197465 ++++++++++++++++++++++++to 0.000197465
Heightened Def Con from 0.000197465 +++++++++++++to 0.000197466
Heightened Def Con from 0.000197466 ++++++++to 0.000197468
Heightened Def Con from 0.000197505 to 0.000197508
Heightened Def Con from 0.000202202 to 0.000202202
Heightened Def Con from 0.000202202 to 0.000202202
Heightened Def Con from 0.000202242 ++++++++++++++++++++++++++to 0.000202242
Heightened Def Con from 0.000202242 to 0.000202243
Heightened Def Con from 0.000218963 to 0.000218963
Heightened Def Con from 0.000218963 to 0.000218963
Heightened Def Con from 0.000218963 to 0.000218964
Heightened Def Con from 0.000225227 to 0.000225227
Heightened Def Con from 0.00023143 to 0.000231432
Heightened Def Con from 0.00023147 +++++++++++++++++++++++to 0.00023147
Heightened Def Con from 0.00023147 ++++++++++++++to 0.000231472
Heightened Def Con from 0.000231472 +++++++++++to 0.000231472
Heightened Def Con from 0.000231472 ++++++++to 0.000231472
Heightened Def Con from 0.000231472 to 0.000231472
Heightened Def Con from 0.000231472 to 0.000231476
Heightened Def Con from 0.00023565 to 0.00023565
Heightened Def Con from 0.00023565 to 0.000235651
Heightened Def Con from 0.00023569 to 0.00023569
Heightened Def Con from 0.00023569 to 0.00023569
Heightened Def Con from 0.00023569 ++++++++++++++++++++++++++to 0.00023569
Heightened Def Con from 0.00023569 ++++++++++++++++++to 0.00023569
Heightened Def Con from 0.00023569 +++++++++++++++++to 0.00023569
Heightened Def Con from 0.00023569 +++++++++++++++++to 0.00023569
Heightened Def Con from 0.00023569 +++++++++++++++++to 0.00023569
Heightened Def Con from 0.00023569 ++++++++++++++++to 0.00023569
Heightened Def Con from 0.00023569 to 0.00023569
Heightened Def Con from 0.00023569 to 0.00023569
Heightened Def Con from 0.00023569 to 0.000235691
Heightened Def Con from 0.000248405 +++++++++++++++++++++++++to 0.00024841
Heightened Def Con from 0.00024841 +++++++++++++++to 0.000248412
Heightened Def Con from 0.000248412 ++++++++++++to 0.000248412
Heightened Def Con from 0.000248412 +++++++++++to 0.000248412
Heightened Def Con from 0.000248412 ++++++++++to 0.000248412
Heightened Def Con from 0.000248412 +++++++++to 0.000248412
Heightened Def Con from 0.000248412 to 0.000248412
Heightened Def Con from 0.000248412 to 0.000248412
Heightened Def Con from 0.000248412 to 0.000248412
Heightened Def Con from 0.000248413 to 0.000248413
Heightened Def Con from 0.000265377 +to 0.000265377
Heightened Def Con from 0.000265417 +++++++++++++++++++++++++to 0.000265423
Heightened Def Con from 0.000265423 ++++++++++++++++to 0.000265424
Heightened Def Con from 0.000265424 +++++++++++++to 0.000265424
Heightened Def Con from 0.000265424 +++++++++++++to 0.000265424
Heightened Def Con from 0.000265424 ++++++++++++to 0.000265424
Heightened Def Con from 0.000265424 ++++++++++++to 0.000265424
Heightened Def Con from 0.000265424 to 0.000265425
Heightened Def Con from 0.000269132 to 0.000269133
Heightened Def Con from 0.000269171 to 0.000269171
Heightened Def Con from 0.000269171 to 0.000269173
Heightened Def Con from 0.000282344 to 0.000282345
Heightened Def Con from 0.000282384 to 0.000282385
Heightened Def Con from 0.000284147 to 0.00028415
Heightened Def Con from 0.000285877 ++++++++++++++++++++++++++to 0.000285877
Heightened Def Con from 0.000285877 to 0.000285879
Heightened Def Con from 0.000285916 to 0.000285916
Heightened Def Con from 0.000285916 to 0.000285916
Heightened Def Con from 0.000285916 to 0.000285918
Heightened Def Con from 0.000299296 to 0.000299296
Heightened Def Con from 0.000299296 to 0.000299298
Heightened Def Con from 0.000299336 +++++++++++++++++++++++to 0.000299336
Heightened Def Con from 0.000299336 ++++++++++++++to 0.000299338
Heightened Def Con from 0.000299338 +++++++++++to 0.000299338
Heightened Def Con from 0.000299338 ++++++++to 0.000299338
Heightened Def Con from 0.000299338 to 0.000299338
Heightened Def Con from 0.000299338 to 0.000299342
Heightened Def Con from 0.000302628 to 0.000302631
Heightened Def Con from 0.000302667 ++++++++++++++++++++++++to 0.000302668
Heightened Def Con from 0.000302668 ++++++++++++++to 0.00030267
Heightened Def Con from 0.00030267 +++++++++++to 0.00030267
Heightened Def Con from 0.00030267 ++++++++++to 0.00030267
Heightened Def Con from 0.00030267 to 0.00030267
Heightened Def Con from 0.000316243 to 0.000316244
Heightened Def Con from 0.000316283 +to 0.000316283
Heightened Def Con from 0.00031783 to 0.000317831
Heightened Def Con from 0.000319386 +to 0.000319386
Heightened Def Con from 0.000319425 to 0.000319427
Heightened Def Con from 0.00033318 to 0.00033318
Heightened Def Con from 0.00033318 to 0.000333181
Heightened Def Con from 0.00033322 ++++++++++++++++++++++++to 0.00033322
Heightened Def Con from 0.00033322 ++++++++++++++to 0.000333222
Heightened Def Con from 0.000333222 +++++++++++to 0.000333222
Heightened Def Con from 0.000333222 ++++++++to 0.000333222
Heightened Def Con from 0.000333222 to 0.000333222
Heightened Def Con from 0.000333222 to 0.000333223
Heightened Def Con from 0.000336152 to 0.000336152
Heightened Def Con from 0.000336152 ++++++++++++++++++++++++++to 0.000336152
Heightened Def Con from 0.000336152 to 0.000336152
Heightened Def Con from 0.000336191 to 0.000336194
Heightened Def Con from 0.000350112 to 0.000350113
Heightened Def Con from 0.00035161 to 0.000351612
Heightened Def Con from 0.000352925 to 0.000352925
Heightened Def Con from 0.000352925 to 0.000352926
Heightened Def Con from 0.000352965 to 0.000352966
Heightened Def Con from 0.000367036 to 0.000367036
Heightened Def Con from 0.000367036 to 0.000367036
Heightened Def Con from 0.000367036 to 0.000367037
Heightened Def Con from 0.000367076 to 0.000367077
Heightened Def Con from 0.000369707 to 0.000369707
Heightened Def Con from 0.000369707 to 0.00036971
Heightened Def Con from 0.000369746 to 0.000369747
Heightened Def Con from 0.000383949 +++++++++++++++++++++++++to 0.000383954
Heightened Def Con from 0.000383954 +++++++++++++++to 0.000383955
Heightened Def Con from 0.000383955 ++++++++++++to 0.000383955
Heightened Def Con from 0.000383955 +++++++++++to 0.000383955
Heightened Def Con from 0.000383955 ++++++++++to 0.000383955
Heightened Def Con from 0.000383955 +++++++++to 0.000383955
Heightened Def Con from 0.000383955 to 0.000383955
Heightened Def Con from 0.000383955 to 0.000383955
Heightened Def Con from 0.000383955 to 0.000383955
Heightened Def Con from 0.000383956 to 0.000383956
Heightened Def Con from 0.000383985 ++++++++++++++++++++++++to 0.000383985
Heightened Def Con from 0.000383985 ++++++++++++++to 0.000383986
Heightened Def Con from 0.000383986 +++++++++++to 0.000383986
Heightened Def Con from 0.000383986 ++++++++to 0.000383986
Heightened Def Con from 0.000383986 to 0.000383986
Heightened Def Con from 0.000383986 to 0.000383986
Heightened Def Con from 0.000383986 to 0.000383987
Heightened Def Con from 0.000383988 to 0.000383988
Heightened Def Con from 0.000386501 to 0.000386502
Heightened Def Con from 0.00038654 ++++++++++++++++++++++++++to 0.000386541
Heightened Def Con from 0.000386541 ++++++++++++++++++to 0.000386541
Heightened Def Con from 0.000386541 ++++++++++++++++to 0.000386541
Heightened Def Con from 0.000386541 +++++++++++++++to 0.000386541
Heightened Def Con from 0.000386541 ++++++++++++++to 0.000386541
Heightened Def Con from 0.000386541 +++++++++++++to 0.000386541
Heightened Def Con from 0.000386541 +++++++++++to 0.000386541
Heightened Def Con from 0.000386541 +++++++to 0.000386541
Heightened Def Con from 0.000386541 to 0.000386541
Heightened Def Con from 0.000386541 ++to 0.000386541
Heightened Def Con from 0.000386541 to 0.000386542
Heightened Def Con from 0.000386542 to 0.000386542
Heightened Def Con from 0.000386542 to 0.000386543
Heightened Def Con from 0.000400845 to 0.000400845
Heightened Def Con from 0.000400845 +to 0.000400845
Heightened Def Con from 0.000400884 to 0.000400886
Heightened Def Con from 0.000403282 to 0.000403283
Heightened Def Con from 0.000403322 ++++++++++++++++++++++++++to 0.000403322
Heightened Def Con from 0.000403322 ++++++++++++++++++to 0.000403322
Heightened Def Con from 0.000403322 ++++++++++++++++to 0.000403322
Heightened Def Con from 0.000403322 +++++++++++++++to 0.000403322
Heightened Def Con from 0.000403322 ++++++++++++++to 0.000403322
Heightened Def Con from 0.000403322 +++++++++++++to 0.000403322
Heightened Def Con from 0.000403322 ++++++++++++to 0.000403322
Heightened Def Con from 0.000403322 ++++++++++++to 0.000403322
Heightened Def Con from 0.000403322 +++++++++to 0.000403322
Heightened Def Con from 0.000403322 +++++to 0.000403322
Heightened Def Con from 0.000403322 to 0.000403322
Heightened Def Con from 0.000403322 +to 0.000403322
Heightened Def Con from 0.000403322 +to 0.000403322
Heightened Def Con from 0.000403322 to 0.000403323
Heightened Def Con from 0.000403323 to 0.000403323
Heightened Def Con from 0.000403323 to 0.000403323
Heightened Def Con from 0.000403323 to 0.000403324
Heightened Def Con from 0.000417725 ++to 0.000417725
Heightened Def Con from 0.000417725 to 0.000417726
Heightened Def Con from 0.000417764 +++++++++++++++++++++++++to 0.000417771
Heightened Def Con from 0.000417771 ++++++++++++++++to 0.000417772
Heightened Def Con from 0.000417772 +++++++++++++to 0.000417772
Heightened Def Con from 0.000417772 +++++++++++++to 0.000417772
Heightened Def Con from 0.000417772 ++++++++++++to 0.000417772
Heightened Def Con from 0.000417772 ++++++++++++to 0.000417772
Heightened Def Con from 0.000417772 to 0.000417773
Heightened Def Con from 0.000418911 to 0.000418912
Heightened Def Con from 0.000420115 to 0.000420115
Heightened Def Con from 0.000420115 to 0.000420116
Heightened Def Con from 0.000427425 to 0.000427427
Heightened Def Con from 0.000434619 +++++++++++++++++++++++++to 0.000434624
Heightened Def Con from 0.000434624 +++++++++++++++to 0.000434625
Heightened Def Con from 0.000434625 ++++++++++++to 0.000434625
Heightened Def Con from 0.000434625 +++++++++++to 0.000434625
Heightened Def Con from 0.000434625 ++++++++++to 0.000434625
Heightened Def Con from 0.000434625 +++++++++to 0.000434625
Heightened Def Con from 0.000434625 to 0.000434625
Heightened Def Con from 0.000434625 to 0.000434625
Heightened Def Con from 0.000434625 to 0.000434625
Heightened Def Con from 0.000434626 ++++++++++++++++++++++++to 0.000434626
Heightened Def Con from 0.000434626 ++++++++++++++to 0.000434628
Heightened Def Con from 0.000434628 +++++++++++to 0.000434628
Heightened Def Con from 0.000434628 ++++++++++to 0.000434628
Heightened Def Con from 0.000434628 to 0.000434628
Heightened Def Con from 0.000434657 +++++++++++++++++++++++++to 0.000434663
Heightened Def Con from 0.000434663 ++++++++++++++++to 0.000434664
Heightened Def Con from 0.000434664 +++++++++++++to 0.000434664
Heightened Def Con from 0.000434664 to 0.000434665
Heightened Def Con from 0.000435776 to 0.000435777
Heightened Def Con from 0.0004369 to 0.0004369
Heightened Def Con from 0.0004369 to 0.000436901
Heightened Def Con from 0.00043694 to 0.00043694
Heightened Def Con from 0.000451511 +to 0.000451511
Heightened Def Con from 0.000451551 to 0.000451551
Heightened Def Con from 0.000451551 to 0.000451552
Heightened Def Con from 0.000453723 to 0.000453724
Heightened Def Con from 0.000453762 to 0.000453764
Heightened Def Con from 0.000468383 to 0.000468383
Heightened Def Con from 0.000468383 to 0.000468384
Heightened Def Con from 0.000468422 +++++++++++++++++++++++++to 0.000468429
Heightened Def Con from 0.000468429 ++++++++++++++++to 0.00046843
Heightened Def Con from 0.00046843 +++++++++++++to 0.00046843
Heightened Def Con from 0.00046843 +++++++++++++to 0.00046843
Heightened Def Con from 0.00046843 ++++++++++++to 0.00046843
Heightened Def Con from 0.00046843 ++++++++++++to 0.00046843
Heightened Def Con from 0.00046843 to 0.000468431
Heightened Def Con from 0.00047056 to 0.000470563
Heightened Def Con from 0.0004706 to 0.0004706
Heightened Def Con from 0.0004706 to 0.000470601
Heightened Def Con from 0.000477931 to 0.000477931
Heightened Def Con from 0.00048529 ++++++++++++++++++++++++to 0.00048529
Heightened Def Con from 0.00048529 ++++++++++++++to 0.000485292
Heightened Def Con from 0.000485292 +++++++++++to 0.000485292
Heightened Def Con from 0.000485292 ++++++++to 0.000485292
Heightened Def Con from 0.000485292 to 0.000485292
Heightened Def Con from 0.000485292 to 0.000485293
Heightened Def Con from 0.000487399 +++++++++++++++++++++++to 0.000487399
Heightened Def Con from 0.000487399 ++++++++++++to 0.0004874
Heightened Def Con from 0.0004874 to 0.000487404
Heightened Def Con from 0.000487438 to 0.000487438
Heightened Def Con from 0.000487438 +++++++++++++++++++++++to 0.000487439
Heightened Def Con from 0.000487439 ++++++++++++++to 0.000487441
Heightened Def Con from 0.000487441 +++++++++++to 0.000487441
Heightened Def Con from 0.000487441 +++++to 0.000487442
Heightened Def Con from 0.000502105 ++++++++++++++++++++++++to 0.000502105
Heightened Def Con from 0.000502105 ++++++++++++to 0.000502106
Heightened Def Con from 0.000502106 to 0.000502106
Heightened Def Con from 0.000504287 to 0.000504287
Heightened Def Con from 0.000518949 ++++++++++++++++++++++++to 0.000518949
Heightened Def Con from 0.000518949 ++++++++++++to 0.000518951
Heightened Def Con from 0.000518951 to 0.000518951
Heightened Def Con from 0.000518989 ++++++++++++++++++++++++to 0.000518989
Heightened Def Con from 0.000518989 ++++++++++++++to 0.000518991
Heightened Def Con from 0.000518991 +++++++++++to 0.000518991
Heightened Def Con from 0.000518991 ++++++++to 0.000518991
Heightened Def Con from 0.000518991 to 0.000518991
Heightened Def Con from 0.000518991 to 0.000518992
Heightened Def Con from 0.000521104 to 0.000521106
Heightened Def Con from 0.000521144 ++++++++++++++++++++++++++to 0.000521144
Heightened Def Con from 0.000521144 to 0.000521146
Heightened Def Con from 0.000528483 to 0.000528483
Heightened Def Con from 0.000528483 to 0.000528486
Heightened Def Con from 0.000535786 ++++++++++++++++++++++++to 0.000535786
Heightened Def Con from 0.000535786 ++++++++++++to 0.000535788
Heightened Def Con from 0.000535788 to 0.000535788
Heightened Def Con from 0.000535826 to 0.000535827
Heightened Def Con from 0.000537971 to 0.000537974
Heightened Def Con from 0.000538011 to 0.000538011
Heightened Def Con from 0.000538011 to 0.000538012
Heightened Def Con from 0.000552615 to 0.000552615
Heightened Def Con from 0.000552615 to 0.000552615
Heightened Def Con from 0.000552655 to 0.000552658
Heightened Def Con from 0.000554846 to 0.000554847
Heightened Def Con from 0.000569433 to 0.000569433
Heightened Def Con from 0.00057173 ++++++++++++++++++++++++++to 0.00057173
Heightened Def Con from 0.00057173 +++++++++to 0.000571731
Heightened Def Con from 0.000586244 +++++++++++++++++++++++++to 0.000586249
Heightened Def Con from 0.000586249 +++++++++++++++to 0.00058625
Heightened Def Con from 0.00058625 ++++++++++++to 0.00058625
Heightened Def Con from 0.00058625 +++++++++++to 0.00058625
Heightened Def Con from 0.00058625 ++++++++++to 0.00058625
Heightened Def Con from 0.00058625 +++++++++to 0.00058625
Heightened Def Con from 0.00058625 to 0.00058625
Heightened Def Con from 0.00058625 to 0.00058625
Heightened Def Con from 0.00058625 to 0.00058625
Heightened Def Con from 0.000586293 +++to 0.000586293
Heightened Def Con from 0.000586293 to 0.000586294
Heightened Def Con from 0.000588627 ++++++++++++++++++++++++++to 0.000588627
Heightened Def Con from 0.000588627 +++++++++to 0.000588628
Heightened Def Con from 0.000603051 +++++++++++++++++++++++++to 0.000603056
Heightened Def Con from 0.000603056 +++++++++++++++to 0.000603057
Heightened Def Con from 0.000603057 ++++++++++++to 0.000603057
Heightened Def Con from 0.000603057 +++++++++++to 0.000603057
Heightened Def Con from 0.000603057 ++++++++++to 0.000603057
Heightened Def Con from 0.000603057 +++++++++to 0.000603057
Heightened Def Con from 0.000603057 to 0.000603057
Heightened Def Con from 0.000603057 to 0.000603057
Heightened Def Con from 0.000603057 to 0.000603057
Heightened Def Con from 0.000603058 to 0.000603058
Heightened Def Con from 0.000603087 to 0.000603088
Heightened Def Con from 0.000605532 to 0.000605533
Heightened Def Con from 0.000605572 to 0.000605572
Heightened Def Con from 0.000619851 to 0.000619851
Heightened Def Con from 0.000619851 to 0.000619852
Heightened Def Con from 0.00061989 to 0.00061989
Heightened Def Con from 0.00061989 to 0.000619891
Heightened Def Con from 0.000622442 to 0.000622443
Heightened Def Con from 0.000622482 to 0.000622482
Heightened Def Con from 0.000622482 +to 0.000622482
Heightened Def Con from 0.000622482 to 0.000622483
Heightened Def Con from 0.000629585 to 0.000629585
Heightened Def Con from 0.000636636 to 0.000636636
Heightened Def Con from 0.000636636 to 0.000636639
Heightened Def Con from 0.000636675 +++++++++++++++++++++++++to 0.000636682
Heightened Def Con from 0.000636682 ++++++++++++++++to 0.000636683
Heightened Def Con from 0.000636683 +++++++++++++to 0.000636683
Heightened Def Con from 0.000636683 +++++++++++++to 0.000636683
Heightened Def Con from 0.000636683 +++++++++++++to 0.000636683
Heightened Def Con from 0.000636683 ++++++++++++to 0.000636683
Heightened Def Con from 0.000636683 ++++++++++++to 0.000636683
Heightened Def Con from 0.000636683 to 0.000636684
Heightened Def Con from 0.000639366 to 0.000639367
Heightened Def Con from 0.00065342 ++++++++++++++++++++++++to 0.000653421
Heightened Def Con from 0.000653421 ++++++++++++to 0.000653422
Heightened Def Con from 0.000653422 to 0.000653422
Heightened Def Con from 0.00065346 to 0.000653461
Heightened Def Con from 0.000656291 to 0.000656292
Heightened Def Con from 0.000670229 to 0.00067023
Heightened Def Con from 0.000671734 to 0.000671734
Heightened Def Con from 0.000673223 to 0.000673224
Heightened Def Con from 0.000673263 to 0.000673264
Heightened Def Con from 0.000686951 +++++++++++++++++++++++++to 0.000686956
Heightened Def Con from 0.000686956 +++++++++++++++to 0.000686957
Heightened Def Con from 0.000686957 ++++++++++++to 0.000686957
Heightened Def Con from 0.000686957 +++++++++++to 0.000686957
Heightened Def Con from 0.000686957 ++++++++++to 0.000686957
Heightened Def Con from 0.000686957 +++++++++to 0.000686957
Heightened Def Con from 0.000686957 to 0.000686957
Heightened Def Con from 0.000686957 to 0.000686957
Heightened Def Con from 0.000686957 to 0.000686957
Heightened Def Con from 0.000686957 to 0.000686958
Heightened Def Con from 0.000686958 to 0.000686962
Heightened Def Con from 0.000686988 +++++++++++++++++++++++++to 0.000686994
Heightened Def Con from 0.000686994 ++++++++++++++++to 0.000686994
Heightened Def Con from 0.000686994 +++++++++++++to 0.000686994
Heightened Def Con from 0.000686994 +++++++++++++to 0.000686994
Heightened Def Con from 0.000686994 +++++++++++++to 0.000686995
Heightened Def Con from 0.000690176 to 0.000690176
Heightened Def Con from 0.000690216 to 0.000690216
Heightened Def Con from 0.000690216 to 0.000690216
Heightened Def Con from 0.000703717 to 0.000703718
Heightened Def Con from 0.000703757 ++++++++++++++++++++++++to 0.000703757
Heightened Def Con from 0.000703757 ++++++++++++++to 0.000703759
Heightened Def Con from 0.000703759 +++++++++++to 0.000703759
Heightened Def Con from 0.000703759 ++++++++to 0.000703759
Heightened Def Con from 0.000703759 to 0.000703759
Heightened Def Con from 0.000707125 to 0.000707125
Heightened Def Con from 0.000707164 to 0.000707165
Heightened Def Con from 0.000720466 +++++++++++++++++++++++to 0.000720466
Heightened Def Con from 0.000720466 ++++++++++++to 0.000720468
Heightened Def Con from 0.000720468 to 0.000720468
Heightened Def Con from 0.00072227 to 0.00072227
Heightened Def Con from 0.00072227 to 0.000722276
Heightened Def Con from 0.000724079 ++++++++++++++++++++++++++to 0.000724079
Heightened Def Con from 0.000724079 ++++++to 0.00072408
Heightened Def Con from 0.000737207 +++++++++++++++++++++++to 0.000737207
Heightened Def Con from 0.000737207 ++++++++++++to 0.000737208
Heightened Def Con from 0.000737208 to 0.000737208
Heightened Def Con from 0.000737208 to 0.000737208
Heightened Def Con from 0.00073914 to 0.000739143
Heightened Def Con from 0.00074108 to 0.00074108
Heightened Def Con from 0.00074108 to 0.000741081
Heightened Def Con from 0.000753941 +to 0.000753941
Heightened Def Con from 0.00075398 ++++++++++++++++++++++++to 0.000753981
Heightened Def Con from 0.000753981 ++++++++++++++to 0.000753982
Heightened Def Con from 0.000753982 +++++++++++to 0.000753982
Heightened Def Con from 0.000753982 ++++++++to 0.000753982
Heightened Def Con from 0.000753982 to 0.000753982
Heightened Def Con from 0.000753982 to 0.000753982
Heightened Def Con from 0.00075801 to 0.000758011
Heightened Def Con from 0.00075805 to 0.000758053
Heightened Def Con from 0.000770712 to 0.000770713
Heightened Def Con from 0.000772852 to 0.000772852
Heightened Def Con from 0.000772852 to 0.000772855
Heightened Def Con from 0.000774985 to 0.000774985
Heightened Def Con from 0.000774985 to 0.000774985
Heightened Def Con from 0.000775024 ++++++++++++++++++++++++++to 0.000775025
Heightened Def Con from 0.000775025 ++++++++++++++++++to 0.000775025
Heightened Def Con from 0.000775025 ++++++++++++++++to 0.000775025
Heightened Def Con from 0.000775025 ++++++++++++++++to 0.000775025
Heightened Def Con from 0.000775025 ++++++++++++++++to 0.000775025
Heightened Def Con from 0.000775025 +++++++to 0.000775025
Heightened Def Con from 0.000775025 to 0.000775025
Heightened Def Con from 0.000781273 to 0.000781273
Heightened Def Con from 0.000781273 to 0.000781276
Heightened Def Con from 0.000787395 to 0.000787395
Heightened Def Con from 0.000787434 to 0.000787435
Heightened Def Con from 0.000791965 to 0.000791967
Heightened Def Con from 0.000804114 +++++++++++++++++++++++++to 0.000804119
Heightened Def Con from 0.000804119 +++++++++++++++to 0.00080412
Heightened Def Con from 0.00080412 ++++++++++++to 0.00080412
Heightened Def Con from 0.00080412 +++++++++++to 0.00080412
Heightened Def Con from 0.00080412 ++++++++++to 0.00080412
Heightened Def Con from 0.00080412 +++++++++to 0.00080412
Heightened Def Con from 0.00080412 to 0.00080412
Heightened Def Con from 0.00080412 to 0.00080412
Heightened Def Con from 0.00080412 to 0.000804121
Heightened Def Con from 0.000804121 +++++++++++++++++++++++++to 0.000804126
Heightened Def Con from 0.000804126 +++++++++++++++to 0.000804127
Heightened Def Con from 0.000804127 ++++++++++++to 0.000804127
Heightened Def Con from 0.000804127 +++++++++++to 0.000804127
Heightened Def Con from 0.000804127 to 0.000804127
Heightened Def Con from 0.000804127 to 0.000804128
Heightened Def Con from 0.000804159 to 0.00080416
Heightened Def Con from 0.000804172 to 0.000804172
Heightened Def Con from 0.000804172 to 0.000804173
Heightened Def Con from 0.000806706 to 0.000806708
Heightened Def Con from 0.000808963 to 0.000808963
Heightened Def Con from 0.000809003 to 0.000809003
Heightened Def Con from 0.000820837 to 0.000820838
Heightened Def Con from 0.000823403 to 0.000823403
Heightened Def Con from 0.000825952 to 0.000825952
Heightened Def Con from 0.000825992 to 0.000825992
Heightened Def Con from 0.000825992 to 0.000825992
Heightened Def Con from 0.000825992 to 0.000825993
Heightened Def Con from 0.000831823 to 0.000831823
Heightened Def Con from 0.000831823 to 0.000831826
Heightened Def Con from 0.000837544 +++++++++++++++++++++++++to 0.000837549
Heightened Def Con from 0.000837549 +++++++++++++++to 0.000837551
Heightened Def Con from 0.000837551 ++++++++++++to 0.000837551
Heightened Def Con from 0.000837551 +++++++++++to 0.000837551
Heightened Def Con from 0.000837551 ++++++++++to 0.000837551
Heightened Def Con from 0.000837551 +++++++++to 0.000837551
Heightened Def Con from 0.000837551 to 0.000837551
Heightened Def Con from 0.000837551 to 0.000837551
Heightened Def Con from 0.000837551 to 0.000837555
Heightened Def Con from 0.000837582 to 0.000837585
Heightened Def Con from 0.000837592 +++++++++++++++++++++++++to 0.000837598
Heightened Def Con from 0.000837598 ++++++++++++++++to 0.000837599
Heightened Def Con from 0.000837599 +++++++++++++to 0.000837599
Heightened Def Con from 0.000837599 +++++++++++++to 0.000837599
Heightened Def Con from 0.000837599 ++++++++++++to 0.000837599
Heightened Def Con from 0.000837599 ++++++++++++to 0.000837599
Heightened Def Con from 0.000837599 to 0.0008376
Heightened Def Con from 0.000842959 to 0.00084296
Heightened Def Con from 0.000842999 to 0.000842999
Heightened Def Con from 0.000842999 to 0.000842999
Heightened Def Con from 0.000842999 to 0.000843002
Heightened Def Con from 0.000848681 to 0.000848681
Heightened Def Con from 0.000848681 to 0.000848684
Heightened Def Con from 0.000854259 +++++++++++++++++++++++to 0.000854259
Heightened Def Con from 0.000854259 ++++++++++++to 0.00085426
Heightened Def Con from 0.00085426 to 0.000854264
Heightened Def Con from 0.000854298 ++++++++++++++++++++++++to 0.000854298
Heightened Def Con from 0.000854298 ++++++++++++to 0.000854298
Heightened Def Con from 0.000854298 +++++++++++++to 0.000854298
Heightened Def Con from 0.000854298 ++++++++++++to 0.000854298
Heightened Def Con from 0.000854298 ++++++++++to 0.000854298
Heightened Def Con from 0.000854298 to 0.000854298
Heightened Def Con from 0.000859958 ++++++++++++++++++++++++++to 0.000859958
Heightened Def Con from 0.000859958 ++++++++to 0.000859958
Heightened Def Con from 0.000859958 to 0.000859958
Heightened Def Con from 0.000859998 ++++++++++++++++++++++++++to 0.000859998
Heightened Def Con from 0.000859998 to 0.000859999
Heightened Def Con from 0.000870999 to 0.000871
Heightened Def Con from 0.000876965 to 0.000876965
Heightened Def Con from 0.000876965 to 0.000876966
Heightened Def Con from 0.000877005 +to 0.000877005
Heightened Def Con from 0.000877005 to 0.000877006
Heightened Def Con from 0.00088766 +to 0.00088766
Heightened Def Con from 0.000887699 +to 0.000887699
Heightened Def Con from 0.000893974 to 0.000893974
Heightened Def Con from 0.000893974 to 0.000893974
Heightened Def Con from 0.000893974 ++++++++++++++++++++++++++to 0.000893975
Heightened Def Con from 0.000893975 +++++++++to 0.000893976
Heightened Def Con from 0.000893976 to 0.00089398
Heightened Def Con from 0.000904355 +++++++++++++++++++++++++to 0.00090436
Heightened Def Con from 0.00090436 +++++++++++++++to 0.000904361
Heightened Def Con from 0.000904361 ++++++++++++to 0.000904361
Heightened Def Con from 0.000904361 +++++++++++to 0.000904361
Heightened Def Con from 0.000904361 ++++++++++to 0.000904361
Heightened Def Con from 0.000904361 +++++++++to 0.000904361
Heightened Def Con from 0.000904361 to 0.000904361
Heightened Def Con from 0.000904361 to 0.000904361
Heightened Def Con from 0.000904361 to 0.000904365
Heightened Def Con from 0.000904392 ++++++++++++++++++++++++to 0.000904393
Heightened Def Con from 0.000904393 ++++++++++++to 0.000904393
Heightened Def Con from 0.000904393 ++++++++++++to 0.000904393
Heightened Def Con from 0.000904393 ++++++++++++to 0.000904393
Heightened Def Con from 0.000904393 ++++++++++++to 0.000904393
Heightened Def Con from 0.000904393 to 0.000904397
Heightened Def Con from 0.000904402 +to 0.000904402
Heightened Def Con from 0.000904402 to 0.000904403
Heightened Def Con from 0.000910991 ++++++++++++++++++++++++++to 0.000910991
Heightened Def Con from 0.000910991 +++++++++to 0.000910992
Heightened Def Con from 0.000910992 to 0.000910996
Heightened Def Con from 0.000911031 to 0.000911031
Heightened Def Con from 0.000916073 +to 0.000916073
Heightened Def Con from 0.000921052 to 0.000921053
Heightened Def Con from 0.000921091 to 0.000921091
Heightened Def Con from 0.000921091 to 0.000921092
Heightened Def Con from 0.000928002 ++++++++++++++++++++++++++to 0.000928002
Heightened Def Con from 0.000928002 to 0.000928004
Heightened Def Con from 0.000928042 to 0.000928043
Heightened Def Con from 0.00093774 to 0.000937741
Heightened Def Con from 0.000937779 +++++++++++++++++++++++++to 0.000937785
Heightened Def Con from 0.000937785 ++++++++++++++++to 0.000937787
Heightened Def Con from 0.000937787 +++++++++++++to 0.000937787
Heightened Def Con from 0.000937787 +++++++++++++to 0.000937787
Heightened Def Con from 0.000937787 +++++++++++++to 0.000937787
Heightened Def Con from 0.000937787 ++++++++++++to 0.000937787
Heightened Def Con from 0.000937787 ++++++++++++to 0.000937787
Heightened Def Con from 0.000937787 to 0.000937788
Heightened Def Con from 0.000945023 to 0.000945023
Heightened Def Con from 0.000945063 to 0.000945064
Heightened Def Con from 0.000949955 to 0.000949955
Heightened Def Con from 0.000954436 +++++++++++++++++++++++++to 0.000954441
Heightened Def Con from 0.000954441 +++++++++++++++to 0.000954443
Heightened Def Con from 0.000954443 ++++++++++++to 0.000954443
Heightened Def Con from 0.000954443 +++++++++++to 0.000954443
Heightened Def Con from 0.000954443 ++++++++++to 0.000954443
Heightened Def Con from 0.000954443 +++++++++to 0.000954443
Heightened Def Con from 0.000954443 to 0.000954443
Heightened Def Con from 0.000954443 to 0.000954443
Heightened Def Con from 0.000954443 to 0.000954447
Heightened Def Con from 0.000954474 +++++++++++++++++++++++to 0.000954474
Heightened Def Con from 0.000954474 ++++++++++++++to 0.000954476
Heightened Def Con from 0.000954476 +++++++++++to 0.000954476
Heightened Def Con from 0.000954476 ++++++++to 0.000954476
Heightened Def Con from 0.000954476 to 0.000954476
Heightened Def Con from 0.000954476 to 0.000954476
Heightened Def Con from 0.000954476 to 0.000954476
Heightened Def Con from 0.000962048 to 0.000962049
Heightened Def Con from 0.000962088 to 0.000962088
Heightened Def Con from 0.000962088 to 0.000962089
Heightened Def Con from 0.000971128 to 0.000971129
Heightened Def Con from 0.000971167 to 0.000971167
Heightened Def Con from 0.000971167 to 0.000971169
Heightened Def Con from 0.000979066 ++++++++++++++++++++++++++to 0.000979066
Heightened Def Con from 0.000979066 ++++++++++++++++++to 0.000979066
Heightened Def Con from 0.000979066 ++++++++++++++to 0.000979066
Heightened Def Con from 0.000979066 ++++++++++++to 0.000979066
Heightened Def Con from 0.000979066 to 0.000979066
Heightened Def Con from 0.000979066 to 0.000979066
Heightened Def Con from 0.000979066 to 0.000979066
Heightened Def Con from 0.000979066 to 0.000979066
Heightened Def Con from 0.000979067 to 0.000979067
Heightened Def Con from 0.000979067 to 0.000979067
Heightened Def Con from 0.000979067 to 0.000979068
Heightened Def Con from 0.000979105 to 0.000979106
Heightened Def Con from 0.000987816 to 0.000987819
Heightened Def Con from 0.000996084 to 0.000996084
Heightened Def Con from 0.000996124 to 0.000996124
Heightened Def Con from 0.000996124 to 0.000996125
Heightened Def Con from 0.0010045 +++++++++++++++++++++++++to 0.00100451
Heightened Def Con from 0.00100451 +++++++++++++++to 0.00100451
Heightened Def Con from 0.00100451 ++++++++++++to 0.00100451
Heightened Def Con from 0.00100451 +++++++++++to 0.00100451
Heightened Def Con from 0.00100451 ++++++++++to 0.00100451
Heightened Def Con from 0.00100451 +++++++++to 0.00100451
Heightened Def Con from 0.00100451 to 0.00100451
Heightened Def Con from 0.00100451 to 0.00100451
Heightened Def Con from 0.00100454 to 0.00100454
Heightened Def Con from 0.00100455 +++++++++++++++++++++++to 0.00100455
Heightened Def Con from 0.00100455 ++++++++++++++to 0.00100455
Heightened Def Con from 0.00100455 +++++++++++to 0.00100455
Heightened Def Con from 0.00100455 ++++++++to 0.00100455
Heightened Def Con from 0.00100455 to 0.00100455
Heightened Def Con from 0.00100879 to 0.0010088
Heightened Def Con from 0.00101311 to 0.00101311
Heightened Def Con from 0.00101315 to 0.00101315
Heightened Def Con from 0.00102119 to 0.00102119
Heightened Def Con from 0.00102119 to 0.00102119
Heightened Def Con from 0.00102119 to 0.00102119
Heightened Def Con from 0.00102123 to 0.00102123
Heightened Def Con from 0.00103016 ++++++++++++++++++++++++++to 0.00103016
Heightened Def Con from 0.00103016 ++++++++++++++++++to 0.00103016
Heightened Def Con from 0.00103016 +++++++++++++++++to 0.00103016
Heightened Def Con from 0.00103016 +++++++++++++++++to 0.00103016
Heightened Def Con from 0.00103016 +++++++++++++++++to 0.00103016
Heightened Def Con from 0.00103016 ++++++++++++++++to 0.00103016
Heightened Def Con from 0.00103016 +++++++++++++to 0.00103016
Heightened Def Con from 0.00103016 ++++++to 0.00103016
Heightened Def Con from 0.00103016 to 0.00103016
Heightened Def Con from 0.00103016 to 0.00103016
Heightened Def Con from 0.00103016 to 0.00103016
Heightened Def Con from 0.00103016 to 0.00103016
Heightened Def Con from 0.00103016 to 0.00103016
Heightened Def Con from 0.00103016 to 0.00103016
Heightened Def Con from 0.00103788 to 0.00103788
Heightened Def Con from 0.00103792 +++++++++++++++++++++++to 0.00103792
Heightened Def Con from 0.00103792 ++++++++++++++to 0.00103792
Heightened Def Con from 0.00103792 +++++++++++to 0.00103792
Heightened Def Con from 0.00103792 to 0.00103792
Heightened Def Con from 0.00104714 to 0.00104714
Heightened Def Con from 0.00104714 to 0.00104714
Heightened Def Con from 0.00104718 ++++++++++++++++++++++++++to 0.00104718
Heightened Def Con from 0.00104718 +++++++++++++++++++to 0.00104718
Heightened Def Con from 0.00104718 +++++++++++++++++to 0.00104718
Heightened Def Con from 0.00104718 +++++++++++++++++to 0.00104718
Heightened Def Con from 0.00104718 +++++++++++++++++to 0.00104718
Heightened Def Con from 0.00104718 +++++++++++++++++to 0.00104718
Heightened Def Con from 0.00104718 ++++++++++++++++to 0.00104718
Heightened Def Con from 0.00104718 ++++++++++++++to 0.00104718
Heightened Def Con from 0.00104718 to 0.00104718
Heightened Def Con from 0.00104718 to 0.00104718
Heightened Def Con from 0.00104718 to 0.00104718
Heightened Def Con from 0.00104718 +to 0.00104718
Heightened Def Con from 0.00104718 to 0.00104718
Heightened Def Con from 0.00104718 to 0.00104718
Heightened Def Con from 0.00104718 to 0.00104718
Heightened Def Con from 0.00104718 to 0.00104719
Heightened Def Con from 0.00105455 to 0.00105455
Heightened Def Con from 0.00105458 to 0.00105459
Heightened Def Con from 0.00106414 to 0.00106414
Heightened Def Con from 0.00106414 to 0.00106414
Heightened Def Con from 0.00106418 to 0.00106418
Heightened Def Con from 0.00107123 to 0.00107123
Heightened Def Con from 0.00107127 +++++++++++++++++++++++++to 0.00107128
Heightened Def Con from 0.00107128 +++++++++++++++to 0.00107128
Heightened Def Con from 0.00107128 ++++++++++++++to 0.00107128
Heightened Def Con from 0.00107128 +++++++++++to 0.00107128
Heightened Def Con from 0.00107128 +++++++++to 0.00107128
Heightened Def Con from 0.00107128 to 0.00107128
Heightened Def Con from 0.00108116 to 0.00108116
Heightened Def Con from 0.0010812 to 0.0010812
Heightened Def Con from 0.00108793 to 0.00108793
Heightened Def Con from 0.00108793 to 0.00108793
Heightened Def Con from 0.00108797 to 0.00108797
Heightened Def Con from 0.00109817 to 0.00109817
Heightened Def Con from 0.00109821 to 0.00109821
Heightened Def Con from 0.00110462 to 0.00110462
Heightened Def Con from 0.00110462 to 0.00110462
Heightened Def Con from 0.00110462 to 0.00110462
Heightened Def Con from 0.00110466 +++++++++++++++++++++++++to 0.00110467
Heightened Def Con from 0.00110467 +++++++++++++++to 0.00110467
Heightened Def Con from 0.00110467 ++++++++++++++to 0.00110467
Heightened Def Con from 0.00110467 +++++++++++to 0.00110467
Heightened Def Con from 0.00110467 +++++++++to 0.00110467
Heightened Def Con from 0.00110467 to 0.00110467
Heightened Def Con from 0.00110467 to 0.00110467
Heightened Def Con from 0.00111518 to 0.00111518
Heightened Def Con from 0.00111518 to 0.00111519
Heightened Def Con from 0.00111522 to 0.00111522
Heightened Def Con from 0.00111829 to 0.00111829
Heightened Def Con from 0.00112132 to 0.00112132
Heightened Def Con from 0.00112132 to 0.00112132
Heightened Def Con from 0.00112136 to 0.00112136
Heightened Def Con from 0.00112136 to 0.00112136
Heightened Def Con from 0.00112672 to 0.00112672
Heightened Def Con from 0.00113219 ++++++++++++++++++++++++++to 0.00113219
Heightened Def Con from 0.00113219 to 0.00113219
Heightened Def Con from 0.00113223 to 0.00113223
Heightened Def Con from 0.00113223 +to 0.00113223
Heightened Def Con from 0.00113514 to 0.00113514
Heightened Def Con from 0.00113802 to 0.00113803
Heightened Def Con from 0.00113806 to 0.00113806
Heightened Def Con from 0.00114919 to 0.00114919
Heightened Def Con from 0.00114919 to 0.00114919
Heightened Def Con from 0.00114919 +++++++++++++++++++++++to 0.00114919
Heightened Def Con from 0.00114919 +++++++++++++to 0.00114919
Heightened Def Con from 0.00114919 ++++++++to 0.0011492
Heightened Def Con from 0.00114923 +to 0.00114923
Heightened Def Con from 0.00114923 +to 0.00114923
Heightened Def Con from 0.00114923 +to 0.00114923
Heightened Def Con from 0.00114923 to 0.00114923
Heightened Def Con from 0.00114923 to 0.00114924
Heightened Def Con from 0.00115477 to 0.00115477
Heightened Def Con from 0.00115477 to 0.00115477
Heightened Def Con from 0.00116619 +to 0.00116619
Heightened Def Con from 0.00116623 to 0.00116623
Heightened Def Con from 0.00116902 to 0.00116902
Heightened Def Con from 0.00117144 to 0.00117144
Heightened Def Con from 0.00117148 to 0.00117148
Heightened Def Con from 0.00118319 +++++++++++++++++++++++to 0.00118319
Heightened Def Con from 0.00118319 +++++++++++++to 0.00118319
Heightened Def Con from 0.00118319 ++++++++to 0.00118319
Heightened Def Con from 0.00118323 +to 0.00118323
Heightened Def Con from 0.00118323 +to 0.00118323
Heightened Def Con from 0.00118323 to 0.00118323
Heightened Def Con from 0.00118815 to 0.00118815
Heightened Def Con from 0.00118819 to 0.00118819
Heightened Def Con from 0.00118819 to 0.00118819
Heightened Def Con from 0.00118819 to 0.00118819
Heightened Def Con from 0.00118819 to 0.00118819
Heightened Def Con from 0.00120022 ++++++++++++++++++++++++++to 0.00120022
Heightened Def Con from 0.00120022 ++++++++++++++++++to 0.00120022
Heightened Def Con from 0.00120022 +++++++++++++++++to 0.00120022
Heightened Def Con from 0.00120022 +++++++++++++++++to 0.00120022
Heightened Def Con from 0.00120022 +++++++++++++++++to 0.00120022
Heightened Def Con from 0.00120022 ++++++++++++++++to 0.00120022
Heightened Def Con from 0.00120022 ++++++++++++to 0.00120022
Heightened Def Con from 0.00120022 to 0.00120022
Heightened Def Con from 0.00120022 +to 0.00120022
Heightened Def Con from 0.00120022 to 0.00120022
Heightened Def Con from 0.00120022 to 0.00120022
Heightened Def Con from 0.00120022 ++++++++++++++++++++++++++to 0.00120022
Heightened Def Con from 0.00120022 ++++++++++++++++++to 0.00120022
Heightened Def Con from 0.00120022 +++++++++++++++++to 0.00120022
Heightened Def Con from 0.00120022 ++++++++++++++++to 0.00120022
Heightened Def Con from 0.00120022 ++++++++++++to 0.00120022
Heightened Def Con from 0.00120022 ++++++++++to 0.00120022
Heightened Def Con from 0.00120022 to 0.00120022
Heightened Def Con from 0.00120022 ++to 0.00120022
Heightened Def Con from 0.00120022 to 0.00120022
Heightened Def Con from 0.00120022 to 0.00120022
Heightened Def Con from 0.00120022 to 0.00120022
Heightened Def Con from 0.00120022 to 0.00120022
Heightened Def Con from 0.00120022 to 0.00120022
Heightened Def Con from 0.00120022 to 0.00120022
Heightened Def Con from 0.00120024 to 0.00120024
Heightened Def Con from 0.00120024 to 0.00120024
Heightened Def Con from 0.00120277 to 0.00120277
Heightened Def Con from 0.00120487 to 0.00120487
Heightened Def Con from 0.00120491 +to 0.00120491
Heightened Def Con from 0.001211 to 0.001211
Heightened Def Con from 0.00121716 ++++++++++++++++++++++++++to 0.00121716
Heightened Def Con from 0.00121716 to 0.00121716
Heightened Def Con from 0.00121716 to 0.00121716
Heightened Def Con from 0.0012172 to 0.0012172
Heightened Def Con from 0.0012172 to 0.0012172
Heightened Def Con from 0.0012172 to 0.0012172
Heightened Def Con from 0.00122159 to 0.00122159
Heightened Def Con from 0.00122159 to 0.00122159
Heightened Def Con from 0.00123414 to 0.00123414
Heightened Def Con from 0.00123414 to 0.00123414
Heightened Def Con from 0.00123832 to 0.00123832
Heightened Def Con from 0.00123836 +to 0.00123836
Heightened Def Con from 0.00125111 +to 0.00125111
Heightened Def Con from 0.00125115 to 0.00125115
Heightened Def Con from 0.00125505 ++++++++++++++++++++++++++to 0.00125505
Heightened Def Con from 0.00125505 +++++++++++to 0.00125505
Heightened Def Con from 0.00125505 to 0.00125506
Heightened Def Con from 0.00125509 to 0.00125509
Heightened Def Con from 0.00125509 to 0.00125509
Heightened Def Con from 0.00126808 ++++++++++++++++++++++++++to 0.00126808
Heightened Def Con from 0.00126808 to 0.00126808
Heightened Def Con from 0.00126812 +++++++++++++++++++++++to 0.00126812
Heightened Def Con from 0.00126812 ++++++++++++++to 0.00126812
Heightened Def Con from 0.00126812 +++++++++++to 0.00126812
Heightened Def Con from 0.00126812 ++++++++to 0.00126812
Heightened Def Con from 0.00126812 to 0.00126812
Heightened Def Con from 0.00126812 to 0.00126812
Heightened Def Con from 0.00127179 to 0.00127179
Heightened Def Con from 0.00127179 to 0.00127179
Heightened Def Con from 0.00127183 to 0.00127183
Heightened Def Con from 0.00127183 to 0.00127183
Heightened Def Con from 0.00128508 +++++++++++++++++++++++to 0.00128508
Heightened Def Con from 0.00128508 ++++++++++++++to 0.00128508
Heightened Def Con from 0.00128508 +++++++++++to 0.00128508
Heightened Def Con from 0.00128508 ++++++++to 0.00128508
Heightened Def Con from 0.00128508 to 0.00128508
Heightened Def Con from 0.00128508 to 0.00128508
Heightened Def Con from 0.00128684 to 0.00128684
Heightened Def Con from 0.00128853 to 0.00128853
Heightened Def Con from 0.00128853 to 0.00128853
Heightened Def Con from 0.00128857 to 0.00128857
Heightened Def Con from 0.00128857 to 0.00128857
Heightened Def Con from 0.00128857 to 0.00128857
Heightened Def Con from 0.00128857 to 0.00128857
Heightened Def Con from 0.00128857 to 0.00128857
Heightened Def Con from 0.00128857 +to 0.00128857
Heightened Def Con from 0.00130203 +++++++++++++++++++++++to 0.00130203
Heightened Def Con from 0.00130203 ++++++++++++++to 0.00130203
Heightened Def Con from 0.00130203 +++++++++++to 0.00130203
Heightened Def Con from 0.00130203 ++++++++to 0.00130203
Heightened Def Con from 0.00130203 to 0.00130203
Heightened Def Con from 0.00130203 to 0.00130203
Heightened Def Con from 0.00130383 to 0.00130383
Heightened Def Con from 0.00130529 to 0.00130529
Heightened Def Con from 0.00130529 to 0.00130529
Heightened Def Con from 0.00130529 to 0.00130529
Heightened Def Con from 0.00130529 to 0.00130529
Heightened Def Con from 0.00130529 to 0.00130529
Heightened Def Con from 0.00130529 to 0.00130529
Heightened Def Con from 0.00130529 to 0.00130529
Heightened Def Con from 0.00130529 to 0.00130529
Heightened Def Con from 0.00130532 to 0.00130532
Heightened Def Con from 0.00131893 to 0.00131893
Heightened Def Con from 0.00131893 to 0.00131893
Heightened Def Con from 0.00131893 ++++++++++++++++++++++++++to 0.00131893
Heightened Def Con from 0.00131893 ++++++to 0.00131894
Heightened Def Con from 0.00131897 to 0.00131897
Heightened Def Con from 0.00132204 to 0.00132204
Heightened Def Con from 0.00132902 to 0.00132902
Heightened Def Con from 0.00133587 ++++++++++++++++++++++++++to 0.00133587
Heightened Def Con from 0.00133587 to 0.00133587
Heightened Def Con from 0.00133591 ++++++++++++++++++++++++++to 0.00133591
Heightened Def Con from 0.00133591 to 0.00133591
Heightened Def Con from 0.00133881 to 0.00133881
Heightened Def Con from 0.00133881 to 0.00133881
Heightened Def Con from 0.00133885 to 0.00133885
Heightened Def Con from 0.0013528 to 0.0013528
Heightened Def Con from 0.00135558 to 0.00135558
Heightened Def Con from 0.00135562 to 0.00135562
Heightened Def Con from 0.00135562 to 0.00135562
Heightened Def Con from 0.00135562 to 0.00135562
Heightened Def Con from 0.00136972 to 0.00136972
Heightened Def Con from 0.00137236 ++++++++++++++++++++++++++to 0.00137236
Heightened Def Con from 0.00137236 +++++++++++to 0.00137237
Heightened Def Con from 0.00137237 to 0.00137237
Heightened Def Con from 0.0013724 to 0.0013724
Heightened Def Con from 0.0013724 to 0.00137241
Heightened Def Con from 0.00138663 to 0.00138663
Heightened Def Con from 0.00138663 to 0.00138663
Heightened Def Con from 0.00138667 ++++++++++++++++++++++++++to 0.00138667
Heightened Def Con from 0.00138667 +++++++++++to 0.00138667
Heightened Def Con from 0.00138667 ++++++++++to 0.00138667
Heightened Def Con from 0.00138667 to 0.00138667
Heightened Def Con from 0.00138916 to 0.00138916
Heightened Def Con from 0.00138916 to 0.00138916
Heightened Def Con from 0.00138919 ++++++++++++++++++++++++++to 0.0013892
Heightened Def Con from 0.0013892 ++++++++++++++to 0.0013892
Heightened Def Con from 0.0013892 +++++++++++to 0.0013892
Heightened Def Con from 0.0013892 to 0.0013892
Heightened Def Con from 0.00140358 ++++++++++++++++++++++++++to 0.00140358
Heightened Def Con from 0.00140358 +++++++++++to 0.00140358
Heightened Def Con from 0.00140358 to 0.00140358
Heightened Def Con from 0.00140595 to 0.00140595
Heightened Def Con from 0.00140599 to 0.001406
Heightened Def Con from 0.00142044 +++++++++++++++++++++++to 0.00142044
Heightened Def Con from 0.00142044 ++++++++++++to 0.00142044
Heightened Def Con from 0.00142044 to 0.00142044
Heightened Def Con from 0.00142048 +to 0.00142048
Heightened Def Con from 0.00142048 to 0.00142048
Heightened Def Con from 0.00142048 to 0.00142048
Heightened Def Con from 0.00142276 to 0.00142276
Heightened Def Con from 0.0014228 to 0.0014228
Heightened Def Con from 0.0014228 to 0.0014228
Heightened Def Con from 0.0014228 to 0.00142281
Heightened Def Con from 0.00143732 to 0.00143732
Heightened Def Con from 0.00143736 ++++++++++++++++++++++++to 0.00143736
Heightened Def Con from 0.00143736 ++++++++++++++to 0.00143737
Heightened Def Con from 0.00143737 +++++++++++to 0.00143737
Heightened Def Con from 0.00143737 ++++++++to 0.00143737
Heightened Def Con from 0.00143737 to 0.00143737
Heightened Def Con from 0.00143958 to 0.00143958
Heightened Def Con from 0.00143962 to 0.00143962
Heightened Def Con from 0.0014542 to 0.0014542
Heightened Def Con from 0.0014542 to 0.0014542
Heightened Def Con from 0.00145424 ++++++++++++++++++++++++++to 0.00145425
Heightened Def Con from 0.00145425 +++++++++++to 0.00145425
Heightened Def Con from 0.00145425 +++++++++to 0.00145425
Heightened Def Con from 0.00145425 +++++++++to 0.00145425
Heightened Def Con from 0.00145425 ++++++++to 0.00145425
Heightened Def Con from 0.00145425 to 0.00145425
Heightened Def Con from 0.00145425 to 0.00145425
Heightened Def Con from 0.0014564 +to 0.0014564
Heightened Def Con from 0.0014564 to 0.00145641
Heightened Def Con from 0.00145644 ++++++++++++++++++++++++++to 0.00145644
Heightened Def Con from 0.00145644 ++++++++++++++to 0.00145645
Heightened Def Con from 0.00145645 +++++++++++to 0.00145645
Heightened Def Con from 0.00145645 to 0.00145645
Heightened Def Con from 0.00147108 +to 0.00147108
Heightened Def Con from 0.00147112 to 0.00147112
Heightened Def Con from 0.00147112 to 0.00147112
Heightened Def Con from 0.00147324 ++++++++++++++++++++++++++to 0.00147324
Heightened Def Con from 0.00147324 +++++++++++to 0.00147324
Heightened Def Con from 0.00147324 to 0.00147324
Heightened Def Con from 0.00147328 to 0.00147328
Heightened Def Con from 0.00148063 to 0.00148063
Heightened Def Con from 0.00148063 to 0.00148063
Heightened Def Con from 0.00148794 ++++++++++++++++++++++++++to 0.00148794
Heightened Def Con from 0.00148794 ++++++++++to 0.00148794
Heightened Def Con from 0.00148794 to 0.00148794
Heightened Def Con from 0.00148798 to 0.00148798
Heightened Def Con from 0.00149008 to 0.00149008
Heightened Def Con from 0.00149012 ++++++++++++++++++++++++++to 0.00149012
Heightened Def Con from 0.00149012 ++++++++++++++to 0.00149012
Heightened Def Con from 0.00149012 +++++++++++to 0.00149012
Heightened Def Con from 0.00149012 to 0.00149012
Heightened Def Con from 0.00150479 ++++++++++++++++++++++++++to 0.00150479
Heightened Def Con from 0.00150479 +++++++++to 0.00150479
Heightened Def Con from 0.00150483 to 0.00150483
Heightened Def Con from 0.00150483 to 0.00150483
Heightened Def Con from 0.00150697 ++++++++++++++++++++++++++to 0.00150697
Heightened Def Con from 0.00150697 ++++++++++++++to 0.00150697
Heightened Def Con from 0.00150697 +++++++++++to 0.00150697
Heightened Def Con from 0.00150697 to 0.00150697
Heightened Def Con from 0.00152164 to 0.00152164
Heightened Def Con from 0.00152164 to 0.00152164
Heightened Def Con from 0.00152164 to 0.00152164
Heightened Def Con from 0.00152164 to 0.00152164
Heightened Def Con from 0.00152168 ++++++++++++++++++++++++++to 0.00152168
Heightened Def Con from 0.00152168 +++++++++++to 0.00152168
Heightened Def Con from 0.00152168 ++++++++++to 0.00152168
Heightened Def Con from 0.00152168 to 0.00152168
Heightened Def Con from 0.00152379 to 0.00152379
Heightened Def Con from 0.00152383 to 0.00152383
Heightened Def Con from 0.00152383 to 0.00152383
Heightened Def Con from 0.00152383 to 0.00152383
Heightened Def Con from 0.00152383 ++++++++++++++++++++++++to 0.00152383
Heightened Def Con from 0.00152383 ++++++++++++++to 0.00152383
Heightened Def Con from 0.00152383 +++++++++++to 0.00152383
Heightened Def Con from 0.00152383 ++++++to 0.00152384
Heightened Def Con from 0.00153848 to 0.00153848
Heightened Def Con from 0.00153851 +to 0.00153851
Heightened Def Con from 0.00153851 to 0.00153852
Heightened Def Con from 0.00154066 to 0.00154066
Heightened Def Con from 0.00154066 ++++++++++++++++++++++++++to 0.00154066
Heightened Def Con from 0.00154066 +++++++++++to 0.00154066
Heightened Def Con from 0.00154066 to 0.00154067
Heightened Def Con from 0.0015407 to 0.0015407
Heightened Def Con from 0.0015553 to 0.0015553
Heightened Def Con from 0.00155534 ++++++++++++++++++++++++++to 0.00155534
Heightened Def Con from 0.00155534 ++++++++++++to 0.00155534
Heightened Def Con from 0.00155534 +++++++++++to 0.00155534
Heightened Def Con from 0.00155534 to 0.00155534
Heightened Def Con from 0.00155649 to 0.00155649
Heightened Def Con from 0.00155758 ++++++++++++++++++++++++++to 0.00155758
Heightened Def Con from 0.00155758 ++++++++++++++to 0.00155758
Heightened Def Con from 0.00155758 +++++++++++to 0.00155758
Heightened Def Con from 0.00155758 to 0.00155758
Heightened Def Con from 0.00156489 to 0.00156489
Heightened Def Con from 0.00157212 to 0.00157212
Heightened Def Con from 0.00157216 ++++++++++++++++++++++++++to 0.00157216
Heightened Def Con from 0.00157216 ++++++++++++to 0.00157216
Heightened Def Con from 0.00157216 ++++++++++to 0.00157216
Heightened Def Con from 0.00157216 +++++++++to 0.00157216
Heightened Def Con from 0.00157216 to 0.00157216
Heightened Def Con from 0.00157216 to 0.00157216
Heightened Def Con from 0.00157443 to 0.00157443
Heightened Def Con from 0.00157446 ++++++++++++++++++++++++++to 0.00157447
Heightened Def Con from 0.00157447 ++++++++++++++to 0.00157447
Heightened Def Con from 0.00157447 +++++++++++to 0.00157447
Heightened Def Con from 0.00157447 to 0.00157447
Heightened Def Con from 0.00158893 to 0.00158893
Heightened Def Con from 0.00158897 ++++++++++++++++++++++++to 0.00158897
Heightened Def Con from 0.00158897 ++++++++++++++to 0.00158897
Heightened Def Con from 0.00158897 +++++++++++to 0.00158897
Heightened Def Con from 0.00158897 ++++++++to 0.00158897
Heightened Def Con from 0.00158897 to 0.00158897
Heightened Def Con from 0.00158897 to 0.00158898
Heightened Def Con from 0.00159132 ++++++++++++++++++++++++++to 0.00159132
Heightened Def Con from 0.00159132 +++++++++++to 0.00159132
Heightened Def Con from 0.00159132 to 0.00159133
Heightened Def Con from 0.00159136 to 0.00159136
Heightened Def Con from 0.00160573 ++++++++++++++++++++++++++to 0.00160574
Heightened Def Con from 0.00160574 to 0.00160574
Heightened Def Con from 0.00160578 ++++++++++++++++++++++++++to 0.00160578
Heightened Def Con from 0.00160578 +++++++++++to 0.00160578
Heightened Def Con from 0.00160578 +++++++++to 0.00160578
Heightened Def Con from 0.00160578 to 0.00160578
Heightened Def Con from 0.001607 to 0.00160701
Heightened Def Con from 0.00160823 to 0.00160823
Heightened Def Con from 0.00160827 to 0.00160827
Heightened Def Con from 0.00162253 to 0.00162253
Heightened Def Con from 0.00162253 to 0.00162253
Heightened Def Con from 0.00162257 ++++++++++++++++++++++++++to 0.00162257
Heightened Def Con from 0.00162257 +++++++++++to 0.00162257
Heightened Def Con from 0.00162257 ++++++++to 0.00162257
Heightened Def Con from 0.00162257 to 0.00162257
Heightened Def Con from 0.00162257 to 0.00162257
Heightened Def Con from 0.00162514 to 0.00162514
Heightened Def Con from 0.00162514 to 0.00162514
Heightened Def Con from 0.00162518 to 0.00162518
Heightened Def Con from 0.00163936 to 0.00163936
Heightened Def Con from 0.0016421 to 0.0016421
Heightened Def Con from 0.0016421 to 0.0016421
Heightened Def Con from 0.00164912 to 0.00164912
Heightened Def Con from 0.00165609 ++++++++++++++++++++++++++to 0.00165609
Heightened Def Con from 0.00165609 to 0.00165609
Heightened Def Con from 0.00165609 to 0.00165609
Heightened Def Con from 0.00165613 to 0.00165613
Heightened Def Con from 0.00165613 to 0.00165613
Heightened Def Con from 0.00165613 +to 0.00165613
Heightened Def Con from 0.00165613 to 0.00165613
Heightened Def Con from 0.00165898 ++++++++++++++++++++++++++to 0.00165898
Heightened Def Con from 0.00165898 +++++++++++to 0.00165898
Heightened Def Con from 0.00165898 to 0.00165899
Heightened Def Con from 0.00165902 to 0.00165902
Heightened Def Con from 0.00167286 to 0.00167286
Heightened Def Con from 0.0016729 to 0.0016729
Heightened Def Con from 0.0016729 to 0.0016729
Heightened Def Con from 0.00167441 to 0.00167441
Heightened Def Con from 0.00167592 to 0.00167592
Heightened Def Con from 0.00167592 +to 0.00167592
Heightened Def Con from 0.00167596 to 0.00167596
Heightened Def Con from 0.00168962 to 0.00168962
Heightened Def Con from 0.00168962 to 0.00168962
Heightened Def Con from 0.00168966 ++++++++++++++++++++++++++to 0.00168966
Heightened Def Con from 0.00168966 +++++++++++to 0.00168966
Heightened Def Con from 0.00168966 ++++++++to 0.00168966
Heightened Def Con from 0.00168966 to 0.00168967
Heightened Def Con from 0.00169141 to 0.00169142
Heightened Def Con from 0.00169286 to 0.00169286
Heightened Def Con from 0.00169286 to 0.00169286
Heightened Def Con from 0.0016929 +to 0.0016929
Heightened Def Con from 0.00170638 to 0.00170638
Heightened Def Con from 0.00170642 to 0.00170642
Heightened Def Con from 0.00170642 +++++++++++++++++++++++to 0.00170642
Heightened Def Con from 0.00170642 ++++++++++++++to 0.00170642
Heightened Def Con from 0.00170642 +++++++++++to 0.00170642
Heightened Def Con from 0.00170642 ++++++++to 0.00170642
Heightened Def Con from 0.00170642 to 0.00170642
Heightened Def Con from 0.00170827 to 0.00170827
Heightened Def Con from 0.00170982 to 0.00170982
Heightened Def Con from 0.00170982 to 0.00170982
Heightened Def Con from 0.00170982 +++++++++++++++++++++++to 0.00170982
Heightened Def Con from 0.00170982 ++++++++++++to 0.00170982
Heightened Def Con from 0.00170982 to 0.00170982
Heightened Def Con from 0.00170986 to 0.00170986
Heightened Def Con from 0.00170986 to 0.00170986
Heightened Def Con from 0.00171655 to 0.00171655
Heightened Def Con from 0.00171655 to 0.00171655
Heightened Def Con from 0.00172313 to 0.00172313
Heightened Def Con from 0.00172313 to 0.00172313
Heightened Def Con from 0.00172317 to 0.00172317
Heightened Def Con from 0.00172677 to 0.00172677
Heightened Def Con from 0.00172681 to 0.00172681
Heightened Def Con from 0.00172681 to 0.00172681
Heightened Def Con from 0.00172681 to 0.00172681
Heightened Def Con from 0.00173987 to 0.00173987
Heightened Def Con from 0.00173991 to 0.00173991
Heightened Def Con from 0.00173991 to 0.00173991
Heightened Def Con from 0.00173991 to 0.00173991
Heightened Def Con from 0.00173991 to 0.00173991
Heightened Def Con from 0.0017566 to 0.00175661
Heightened Def Con from 0.00175664 to 0.00175664
Heightened Def Con from 0.00175664 to 0.00175664
Heightened Def Con from 0.00175664 to 0.00175665
Heightened Def Con from 0.0017607 to 0.0017607
Heightened Def Con from 0.00176074 to 0.00176074
Heightened Def Con from 0.00176074 to 0.00176074
Heightened Def Con from 0.00177333 +++++++++++++++++++++++to 0.00177333
Heightened Def Con from 0.00177333 ++++++++++++to 0.00177333
Heightened Def Con from 0.00177333 to 0.00177333
Heightened Def Con from 0.00177552 to 0.00177552
Heightened Def Con from 0.00177768 to 0.00177768
Heightened Def Con from 0.00177772 ++++++++++++++++++++++++++to 0.00177772
Heightened Def Con from 0.00177772 +++++++++++++to 0.00177772
Heightened Def Con from 0.00177772 to 0.00177772
Heightened Def Con from 0.00177772 to 0.00177772
Heightened Def Con from 0.00179006 ++++++++++++++++++++++++++to 0.00179006
Heightened Def Con from 0.00179006 to 0.00179006
Heightened Def Con from 0.00179466 to 0.00179466
Heightened Def Con from 0.0017947 to 0.0017947
Heightened Def Con from 0.00180677 ++++++++++++++++++++++++++to 0.00180677
Heightened Def Con from 0.00180677 to 0.00180677
Heightened Def Con from 0.00180677 to 0.00180677
Heightened Def Con from 0.00180681 to 0.00180681
Heightened Def Con from 0.00180681 to 0.00180681
Heightened Def Con from 0.00180681 to 0.00180681
Heightened Def Con from 0.00180942 to 0.00180942
Heightened Def Con from 0.00181165 to 0.00181165
Heightened Def Con from 0.00181169 to 0.00181169
Heightened Def Con from 0.00182349 +to 0.00182349
Heightened Def Con from 0.00182349 to 0.00182349
Heightened Def Con from 0.00182353 to 0.00182353
Heightened Def Con from 0.00182353 to 0.00182353
Heightened Def Con from 0.00182607 to 0.00182607
Heightened Def Con from 0.00182607 to 0.00182607
Heightened Def Con from 0.00182864 to 0.00182864
Heightened Def Con from 0.00182868 to 0.00182868
Heightened Def Con from 0.00182868 to 0.00182868
Heightened Def Con from 0.00183457 to 0.00183457
Heightened Def Con from 0.00184023 to 0.00184023
Heightened Def Con from 0.00184023 to 0.00184023
Heightened Def Con from 0.00184564 to 0.00184564
Heightened Def Con from 0.00184568 +++++++++++++++++++++++++to 0.00184568
Heightened Def Con from 0.00184568 +++++++++++++++to 0.00184568
Heightened Def Con from 0.00184568 ++++++++++++++to 0.00184568
Heightened Def Con from 0.00184568 +++++++++++to 0.00184568
Heightened Def Con from 0.00184568 +++++++++to 0.00184568
Heightened Def Con from 0.00184568 to 0.00184568
Heightened Def Con from 0.00184568 to 0.00184569
Heightened Def Con from 0.00185136 to 0.00185136
Heightened Def Con from 0.0018569 ++++++++++++++++++++++++++to 0.0018569
Heightened Def Con from 0.0018569 ++++++++++++++++++to 0.0018569
Heightened Def Con from 0.0018569 +++++++++++++++++to 0.0018569
Heightened Def Con from 0.0018569 ++++++++++to 0.0018569
Heightened Def Con from 0.0018569 to 0.0018569
Heightened Def Con from 0.0018569 to 0.00185691
Heightened Def Con from 0.00185691 to 0.00185691
Heightened Def Con from 0.00185694 to 0.00185694
Heightened Def Con from 0.00185985 to 0.00185985
Heightened Def Con from 0.00186264 to 0.00186264
Heightened Def Con from 0.00186264 to 0.00186265
Heightened Def Con from 0.00186268 +++++++++++++++++++++++++to 0.00186269
Heightened Def Con from 0.00186269 +++++++++++++++to 0.00186269
Heightened Def Con from 0.00186269 ++++++++++++++to 0.00186269
Heightened Def Con from 0.00186269 +++++++++++to 0.00186269
Heightened Def Con from 0.00186269 +++++++++to 0.00186269
Heightened Def Con from 0.00186269 to 0.00186269
Heightened Def Con from 0.00186269 ++to 0.0018627
Heightened Def Con from 0.00187361 to 0.00187361
Heightened Def Con from 0.00187361 to 0.00187361
Heightened Def Con from 0.00187365 to 0.00187365
Heightened Def Con from 0.00187965 to 0.00187966
Heightened Def Con from 0.0018903 to 0.0018903
Heightened Def Con from 0.0018903 to 0.0018903
Heightened Def Con from 0.00189034 ++++++++++++++++++++++++++to 0.00189034
Heightened Def Con from 0.00189034 to 0.00189034
Heightened Def Con from 0.00189666 +++++++++++++++++++++++++to 0.00189666
Heightened Def Con from 0.00189666 +++++++++++to 0.00189666
Heightened Def Con from 0.00189666 to 0.00189667
Heightened Def Con from 0.0018967 to 0.0018967
Heightened Def Con from 0.00190189 to 0.00190189
Heightened Def Con from 0.001907 to 0.001907
Heightened Def Con from 0.001907 to 0.001907
Heightened Def Con from 0.00191367 +++++++++++++++++++++++to 0.00191368
Heightened Def Con from 0.00191368 ++++++++++++to 0.00191368
Heightened Def Con from 0.00191368 to 0.00191368
Heightened Def Con from 0.00191372 to 0.00191372
Heightened Def Con from 0.00192369 to 0.00192369
Heightened Def Con from 0.00192369 to 0.00192369
Heightened Def Con from 0.00192373 to 0.00192373
Heightened Def Con from 0.00193069 +++++++++++++++++++++++to 0.00193069
Heightened Def Con from 0.00193069 ++++++++++++to 0.00193069
Heightened Def Con from 0.00193069 to 0.00193069
Heightened Def Con from 0.00193073 to 0.00193073
Heightened Def Con from 0.00193073 to 0.00193073
Heightened Def Con from 0.00193073 to 0.00193073
Heightened Def Con from 0.00194038 ++++++++++++++++++++++++++to 0.00194038
Heightened Def Con from 0.00194038 to 0.00194038
Heightened Def Con from 0.00194423 to 0.00194423
Heightened Def Con from 0.00194771 +++++++++++++++++++++++++to 0.00194771
Heightened Def Con from 0.00194771 +++++++++++++++to 0.00194771
Heightened Def Con from 0.00194771 ++++++++++++to 0.00194771
Heightened Def Con from 0.00194771 to 0.00194771
Heightened Def Con from 0.00194774 to 0.00194774
Heightened Def Con from 0.00194774 to 0.00194775
Heightened Def Con from 0.00194775 +++++++++++++++++++++++to 0.00194775
Heightened Def Con from 0.00194775 ++++++++++++++to 0.00194776
Heightened Def Con from 0.00194776 +++++++++++to 0.00194776
Heightened Def Con from 0.00194776 ++++++++to 0.00194776
Heightened Def Con from 0.00194776 to 0.00194776
Heightened Def Con from 0.00194776 to 0.00194776
Heightened Def Con from 0.00195707 to 0.00195707
Heightened Def Con from 0.00195707 to 0.00195707
Heightened Def Con from 0.00195707 to 0.00195707
Heightened Def Con from 0.00196476 +++++++++++++++++++++++++to 0.00196477
Heightened Def Con from 0.00196477 ++++++++++++++++to 0.00196477
Heightened Def Con from 0.00196477 +++++++++++++to 0.00196477
Heightened Def Con from 0.00196477 +++++++++++++to 0.00196477
Heightened Def Con from 0.00196477 +++++++++++++to 0.00196477
Heightened Def Con from 0.00196477 +++++++++++++to 0.00196477
Heightened Def Con from 0.00196477 to 0.00196478
Heightened Def Con from 0.00197376 to 0.00197377
Heightened Def Con from 0.0019738 ++++++++++++++++++++++++++to 0.0019738
Heightened Def Con from 0.0019738 +++++++++++++++++++to 0.0019738
Heightened Def Con from 0.0019738 +++++++++++++++++to 0.0019738
Heightened Def Con from 0.0019738 +++++++++++++++++to 0.0019738
Heightened Def Con from 0.0019738 ++++++++++++++++to 0.0019738
Heightened Def Con from 0.0019738 ++++++++++++to 0.0019738
Heightened Def Con from 0.0019738 to 0.0019738
Heightened Def Con from 0.0019738 to 0.00197381
Heightened Def Con from 0.00197381 to 0.00197381
Heightened Def Con from 0.00197381 to 0.00197381
Heightened Def Con from 0.00198172 to 0.00198172
Heightened Def Con from 0.00198176 to 0.00198176
Heightened Def Con from 0.00198176 to 0.00198176
Heightened Def Con from 0.00199043 ++++++++++++++++++++++++++to 0.00199043
Heightened Def Con from 0.00199043 to 0.00199043
Heightened Def Con from 0.00199047 +to 0.00199047
Heightened Def Con from 0.00199457 to 0.00199457
Heightened Def Con from 0.00199457 to 0.00199458
Heightened Def Con from 0.00199874 +++++++++++++++++++++++++to 0.00199875
Heightened Def Con from 0.00199875 +++++++++++++++to 0.00199875
Heightened Def Con from 0.00199875 ++++++++++++to 0.00199875
Heightened Def Con from 0.00199875 +++++++++++to 0.00199875
Heightened Def Con from 0.00199875 ++++++++++to 0.00199875
Heightened Def Con from 0.00199875 +++++++++to 0.00199875
Heightened Def Con from 0.00199875 to 0.00199875
Heightened Def Con from 0.00199875 to 0.00199875
Heightened Def Con from 0.00200712 to 0.00200712
Heightened Def Con from 0.00200716 to 0.00200716
Heightened Def Con from 0.00201577 +++++++++++++++++++++++to 0.00201577
Heightened Def Con from 0.00201577 ++++++++++++to 0.00201577
Heightened Def Con from 0.00201577 to 0.00201577
Heightened Def Con from 0.00201581 +++++++++++++++++++++++++to 0.00201581
Heightened Def Con from 0.00201581 ++++++++++++++++to 0.00201581
Heightened Def Con from 0.00201581 +++++++++++++to 0.00201581
Heightened Def Con from 0.00201581 +++++++++++++to 0.00201581
Heightened Def Con from 0.00201581 +++++++++++++to 0.00201581
Heightened Def Con from 0.00201581 +++++++++++++to 0.00201581
Heightened Def Con from 0.00201581 to 0.00201582
Heightened Def Con from 0.00202381 to 0.00202381
Heightened Def Con from 0.00202385 to 0.00202385
Heightened Def Con from 0.00202385 to 0.00202385
Heightened Def Con from 0.00203279 to 0.00203279
Heightened Def Con from 0.00203283 +++++++++++++++++++++++++to 0.00203284
Heightened Def Con from 0.00203284 ++++++++++++++++to 0.00203284
Heightened Def Con from 0.00203284 +++++++++++++to 0.00203284
Heightened Def Con from 0.00203284 +++++++++++++to 0.00203284
Heightened Def Con from 0.00203284 +++++++++++++to 0.00203284
Heightened Def Con from 0.00203284 +++++++++++++to 0.00203284
Heightened Def Con from 0.00203284 to 0.00203285
Heightened Def Con from 0.0020405 to 0.00204051
Heightened Def Con from 0.00204054 to 0.00204054
Heightened Def Con from 0.00204521 to 0.00204521
Heightened Def Con from 0.00204981 +++++++++++++++++++++++to 0.00204982
Heightened Def Con from 0.00204982 ++++++++++++to 0.00204982
Heightened Def Con from 0.00204982 to 0.00204982
Heightened Def Con from 0.00204986 to 0.00204986
Heightened Def Con from 0.00205719 to 0.00205719
Heightened Def Con from 0.00205719 to 0.00205719
Heightened Def Con from 0.00205723 to 0.00205723
Heightened Def Con from 0.00205723 to 0.00205723
Heightened Def Con from 0.00205723 to 0.00205723
Heightened Def Con from 0.00206683 to 0.00206684
Heightened Def Con from 0.00206687 +++++++++++++++++++++++++to 0.00206688
Heightened Def Con from 0.00206688 ++++++++++++++++to 0.00206688
Heightened Def Con from 0.00206688 +++++++++++++to 0.00206688
Heightened Def Con from 0.00206688 +++++++++++++to 0.00206688
Heightened Def Con from 0.00206688 +++++++++++++to 0.00206688
Heightened Def Con from 0.00206688 +++++++++++++to 0.00206688
Heightened Def Con from 0.00206688 to 0.00206689
Heightened Def Con from 0.00207389 ++++++++++++++++++++++++++to 0.00207389
Heightened Def Con from 0.00207389 ++++++++to 0.00207389
Heightened Def Con from 0.00207393 to 0.00207393
Heightened Def Con from 0.00208385 to 0.00208386
Heightened Def Con from 0.00208389 to 0.0020839
Heightened Def Con from 0.00210087 to 0.00210087
Heightened Def Con from 0.00210091 +++++++++++++++++++++++++to 0.00210091
Heightened Def Con from 0.00210091 ++++++++++++++++to 0.00210091
Heightened Def Con from 0.00210091 +++++++++++++to 0.00210091
Heightened Def Con from 0.00210091 +++++++++++++to 0.00210091
Heightened Def Con from 0.00210091 +++++++++++++to 0.00210091
Heightened Def Con from 0.00210091 +++++++++++++to 0.00210091
Heightened Def Con from 0.00210091 ++++++++++++to 0.00210091
Heightened Def Con from 0.00210091 ++++++++++++to 0.00210091
Heightened Def Con from 0.00210091 to 0.00210091
Heightened Def Con from 0.00210728 ++++++++++++++++++++++++++to 0.00210728
Heightened Def Con from 0.00210728 +++++++++to 0.00210728
Heightened Def Con from 0.00211788 to 0.00211788
Heightened Def Con from 0.00212398 to 0.00212398
Heightened Def Con from 0.00212402 to 0.00212402
Heightened Def Con from 0.00213489 +++++++++++++++++++++++++to 0.00213489
Heightened Def Con from 0.00213489 +++++++++++++++to 0.00213489
Heightened Def Con from 0.00213489 ++++++++++++to 0.00213489
Heightened Def Con from 0.00213489 +++++++++++to 0.00213489
Heightened Def Con from 0.00213489 ++++++++++to 0.00213489
Heightened Def Con from 0.00213489 +++++++++to 0.00213489
Heightened Def Con from 0.00213489 to 0.00213489
Heightened Def Con from 0.00213489 to 0.00213489
Heightened Def Con from 0.00213489 to 0.00213489
Heightened Def Con from 0.00213489 to 0.0021349
Heightened Def Con from 0.00213492 to 0.00213493
Heightened Def Con from 0.00213494 to 0.00213494
Heightened Def Con from 0.00214068 to 0.00214068
Heightened Def Con from 0.00214068 to 0.00214069
Heightened Def Con from 0.00214072 to 0.00214072
Heightened Def Con from 0.00214072 to 0.00214072
Heightened Def Con from 0.00214624 to 0.00214624
Heightened Def Con from 0.00214624 to 0.00214624
Heightened Def Con from 0.00215189 to 0.00215189
Heightened Def Con from 0.00215189 to 0.00215189
Heightened Def Con from 0.00215189 to 0.00215189
Heightened Def Con from 0.00215193 to 0.00215193
Heightened Def Con from 0.00215193 to 0.00215193
Heightened Def Con from 0.00215193 to 0.00215193
Heightened Def Con from 0.00215738 to 0.00215738
Heightened Def Con from 0.00215738 to 0.00215739
Heightened Def Con from 0.00215742 ++++++++++++++++++++++++++to 0.00215742
Heightened Def Con from 0.00215742 to 0.00215743
Heightened Def Con from 0.00216889 to 0.00216889
Heightened Def Con from 0.00216889 to 0.00216889
Heightened Def Con from 0.00216889 to 0.00216889
Heightened Def Con from 0.00216893 +++++++++++++++++++++++++to 0.00216894
Heightened Def Con from 0.00216894 ++++++++++++++++to 0.00216894
Heightened Def Con from 0.00216894 +++++++++++++to 0.00216894
Heightened Def Con from 0.00216894 +++++++++++++to 0.00216894
Heightened Def Con from 0.00216894 +++++++++++++to 0.00216894
Heightened Def Con from 0.00216894 to 0.00216894
Heightened Def Con from 0.00217414 to 0.00217414
Heightened Def Con from 0.00218589 to 0.00218589
Heightened Def Con from 0.00218593 +++++++++++++++++++++++++to 0.00218594
Heightened Def Con from 0.00218594 ++++++++++++++++to 0.00218594
Heightened Def Con from 0.00218594 +++++++++++++to 0.00218594
Heightened Def Con from 0.00218594 +++++++++++++to 0.00218594
Heightened Def Con from 0.00218594 +++++++++++++to 0.00218594
Heightened Def Con from 0.00218594 to 0.00218594
Heightened Def Con from 0.00219081 to 0.00219081
Heightened Def Con from 0.00219081 to 0.00219081
Heightened Def Con from 0.00219081 to 0.00219081
Heightened Def Con from 0.00219081 to 0.00219081
Heightened Def Con from 0.00219081 to 0.00219081
Heightened Def Con from 0.00219081 ++++++++++++++++++++++++++to 0.00219081
Heightened Def Con from 0.00219081 ++++to 0.00219081
Heightened Def Con from 0.00219085 to 0.00219085
Heightened Def Con from 0.00220288 +++++++++++++++++++++++to 0.00220288
Heightened Def Con from 0.00220288 ++++++++++++to 0.00220288
Heightened Def Con from 0.00220288 to 0.00220289
Heightened Def Con from 0.00220292 +++++++++++++++++++++++++to 0.00220293
[...]
Heightened Def Con from 0.00444534 to 0.00444534
Heightened Def Con from 0.00444538 to 0.00444538
Heightened Def Con from 0.00444757 to 0.00444758
Heightened Def Con from 0.00444761 to 0.00444762
Heightened Def Con from 0.00446222 +to 0.00446222
Heightened Def Con from 0.00446222 to 0.00446222
Heightened Def Con from 0.00446226 +++++++++++++++++++++++++to 0.00446226
Heightened Def Con from 0.00446226 ++++++++++++++++to 0.00446226
Heightened Def Con from 0.00446226 +++++++++++++to 0.00446226
Heightened Def Con from 0.00446226 +++++++++++++to 0.00446226
Heightened Def Con from 0.00446226 +++++++++++++to 0.00446226
Heightened Def Con from 0.00446226 to 0.00446227
Heightened Def Con from 0.00446441 to 0.00446441
Heightened Def Con from 0.00446441 to 0.00446441
Heightened Def Con from 0.00446441 to 0.00446441
Heightened Def Con from 0.00446445 to 0.00446445
Heightened Def Con from 0.00446445 to 0.00446445
Heightened Def Con from 0.00447909 to 0.00447909
Heightened Def Con from 0.00447913 to 0.00447913
Heightened Def Con from 0.00447913 to 0.00447913
Heightened Def Con from 0.00448882 to 0.00448882
Heightened Def Con from 0.00449595 to 0.00449595
Heightened Def Con from 0.00449595 to 0.00449595
Heightened Def Con from 0.00449813 to 0.00449813
Heightened Def Con from 0.00449813 to 0.00449813
Heightened Def Con from 0.0045128 to 0.0045128
Heightened Def Con from 0.00451284 to 0.00451284
Heightened Def Con from 0.00451284 to 0.00451284
Heightened Def Con from 0.00451495 to 0.00451495
Heightened Def Con from 0.00451498 to 0.00451498
Heightened Def Con from 0.00451498 to 0.00451499
Heightened Def Con from 0.00452964 +++++++++++++++++++++++++to 0.00452964
Heightened Def Con from 0.00452964 +++++++++++++++to 0.00452964
Heightened Def Con from 0.00452964 ++++++++++++to 0.00452964
Heightened Def Con from 0.00452964 +++++++++++to 0.00452964
Heightened Def Con from 0.00452964 ++++++++++to 0.00452964
Heightened Def Con from 0.00452964 +++++++++to 0.00452964
Heightened Def Con from 0.00452964 to 0.00452964
Heightened Def Con from 0.00452964 to 0.00452964
Heightened Def Con from 0.00452964 to 0.00452964
Heightened Def Con from 0.00452964 ++++++++++++++++++++++++to 0.00452964
Heightened Def Con from 0.00452964 ++++++++++++++to 0.00452965
Heightened Def Con from 0.00452965 +++++++++++to 0.00452965
Heightened Def Con from 0.00452965 ++++++++++to 0.00452965
Heightened Def Con from 0.00452965 to 0.00452965
Heightened Def Con from 0.00452968 to 0.00452968
Heightened Def Con from 0.00452969 to 0.00452969
Heightened Def Con from 0.00453181 ++++++++++++++++++++++++++to 0.00453181
Heightened Def Con from 0.00453181 to 0.00453182
Heightened Def Con from 0.00453185 to 0.00453186
Heightened Def Con from 0.00454869 to 0.00454869
Heightened Def Con from 0.00454873 to 0.00454873
Heightened Def Con from 0.00454873 to 0.00454873
Heightened Def Con from 0.0045633 ++++++++++++++++++++++++to 0.0045633
Heightened Def Con from 0.0045633 ++++++++++++to 0.0045633
Heightened Def Con from 0.0045633 to 0.0045633
Heightened Def Con from 0.00456334 to 0.00456334
Heightened Def Con from 0.00456334 to 0.00456334
Heightened Def Con from 0.00456557 to 0.00456557
Heightened Def Con from 0.00456557 to 0.00456557
Heightened Def Con from 0.00456561 to 0.00456561
Heightened Def Con from 0.00456561 to 0.00456561
Heightened Def Con from 0.00458011 to 0.00458011
Heightened Def Con from 0.00458011 to 0.00458011
Heightened Def Con from 0.00458015 to 0.00458015
Heightened Def Con from 0.00458245 +to 0.00458245
Heightened Def Con from 0.00459691 to 0.00459691
Heightened Def Con from 0.00459695 to 0.00459695
Heightened Def Con from 0.00459695 to 0.00459695
Heightened Def Con from 0.00459935 to 0.00459935
Heightened Def Con from 0.00459939 +to 0.00459939
Heightened Def Con from 0.00461375 to 0.00461375
Heightened Def Con from 0.00461626 ++++++++++++++++++++++++++to 0.00461626
Heightened Def Con from 0.00461626 +++++++++to 0.00461626
Heightened Def Con from 0.00463054 ++++++++++++++++++++++++to 0.00463054
Heightened Def Con from 0.00463054 ++++++++++++++to 0.00463054
Heightened Def Con from 0.00463054 +++++++++++to 0.00463054
Heightened Def Con from 0.00463054 ++++++++to 0.00463054
Heightened Def Con from 0.00463054 to 0.00463054
Heightened Def Con from 0.00463317 ++++++++++++++++++++++++++to 0.00463317
Heightened Def Con from 0.00463317 to 0.00463317
Heightened Def Con from 0.00463321 ++++++++++++++++++++++++++to 0.00463321
Heightened Def Con from 0.00463321 ++++++++++++++++++to 0.00463321
Heightened Def Con from 0.00463321 ++++++++++++++++to 0.00463321
Heightened Def Con from 0.00463321 +++++++++++++++to 0.00463321
Heightened Def Con from 0.00463321 +++++++++++++to 0.00463321
Heightened Def Con from 0.00463321 ++++++++++++to 0.00463321
Heightened Def Con from 0.00463321 ++++++++++++to 0.00463321
Heightened Def Con from 0.00463321 ++++++++++++to 0.00463321
Heightened Def Con from 0.00463321 +++++++++++to 0.00463321
Heightened Def Con from 0.00463321 ++++++++++to 0.00463321
Heightened Def Con from 0.00463321 ++to 0.00463321
Heightened Def Con from 0.00463321 to 0.00463321
Heightened Def Con from 0.00464728 to 0.00464728
Heightened Def Con from 0.00464732 ++++++++++++++++++++++++to 0.00464732
Heightened Def Con from 0.00464732 ++++++++++++++to 0.00464732
Heightened Def Con from 0.00464732 +++++++++++to 0.00464732
Heightened Def Con from 0.00464732 ++++++++to 0.00464732
Heightened Def Con from 0.00464732 to 0.00464732
Heightened Def Con from 0.00464869 to 0.00464869
Heightened Def Con from 0.00465009 to 0.00465009
Heightened Def Con from 0.00465013 to 0.00465014
Heightened Def Con from 0.00466405 to 0.00466405
Heightened Def Con from 0.00466409 to 0.00466409
Heightened Def Con from 0.00466702 +to 0.00466702
Heightened Def Con from 0.00466706 to 0.00466706
Heightened Def Con from 0.00468082 to 0.00468082
Heightened Def Con from 0.00468082 to 0.00468082
Heightened Def Con from 0.00468086 to 0.00468086
Heightened Def Con from 0.00468396 +++to 0.00468396
Heightened Def Con from 0.00468396 to 0.00468396
Heightened Def Con from 0.004684 to 0.004684
Heightened Def Con from 0.00469757 +++++++++++++++++++++++++to 0.00469758
Heightened Def Con from 0.00469758 +++++++++++++++to 0.00469758
Heightened Def Con from 0.00469758 ++++++++++++to 0.00469758
Heightened Def Con from 0.00469758 +++++++++++to 0.00469758
Heightened Def Con from 0.00469758 ++++++++++to 0.00469758
Heightened Def Con from 0.00469758 +++++++++to 0.00469758
Heightened Def Con from 0.00469758 to 0.00469758
Heightened Def Con from 0.00469758 to 0.00469758
Heightened Def Con from 0.00469758 to 0.00469758
Heightened Def Con from 0.00469758 to 0.00469758
Heightened Def Con from 0.00469758 to 0.00469758
Heightened Def Con from 0.00469758 to 0.00469758
Heightened Def Con from 0.00469761 to 0.00469761
Heightened Def Con from 0.00469762 to 0.00469762
Heightened Def Con from 0.00469762 to 0.00469762
Heightened Def Con from 0.00470091 to 0.00470092
Heightened Def Con from 0.00470095 to 0.00470095
Heightened Def Con from 0.00470095 to 0.00470096
Heightened Def Con from 0.00471433 to 0.00471433
Heightened Def Con from 0.00471437 +++++++++++++++++++++++to 0.00471437
Heightened Def Con from 0.00471437 ++++++++++++++to 0.00471437
Heightened Def Con from 0.00471437 +++++++++++to 0.00471437
Heightened Def Con from 0.00471437 ++++++++to 0.00471437
Heightened Def Con from 0.00471437 to 0.00471437
Heightened Def Con from 0.00471437 to 0.00471437
Heightened Def Con from 0.00471787 to 0.00471787
Heightened Def Con from 0.00471787 +++++++++++++++++++++++to 0.00471787
Heightened Def Con from 0.00471787 +++++++++++++to 0.00471787
Heightened Def Con from 0.00471787 ++++++++to 0.00471787
Heightened Def Con from 0.00473108 to 0.00473108
Heightened Def Con from 0.00473111 to 0.00473112
Heightened Def Con from 0.00473483 to 0.00473483
Heightened Def Con from 0.00474138 to 0.00474139
Heightened Def Con from 0.00474781 +++++++++++++++++++++++to 0.00474781
Heightened Def Con from 0.00474781 ++++++++++++to 0.00474781
Heightened Def Con from 0.00474781 to 0.00474782
Heightened Def Con from 0.00474785 +++++++++++++++++++++++++to 0.00474786
Heightened Def Con from 0.00474786 ++++++++++++++++to 0.00474786
Heightened Def Con from 0.00474786 +++++++++++++to 0.00474786
Heightened Def Con from 0.00474786 +++++++++++++to 0.00474786
Heightened Def Con from 0.00474786 +++++++++++++to 0.00474786
Heightened Def Con from 0.00474786 to 0.00474786
Heightened Def Con from 0.00474989 to 0.00474989
Heightened Def Con from 0.0047518 +to 0.0047518
Heightened Def Con from 0.00475184 to 0.00475184
Heightened Def Con from 0.00476459 to 0.00476459
Heightened Def Con from 0.00476459 to 0.00476459
Heightened Def Con from 0.00476877 to 0.00476877
Heightened Def Con from 0.00476881 to 0.00476881
Heightened Def Con from 0.00476881 to 0.00476881
Heightened Def Con from 0.00478127 to 0.00478127
Heightened Def Con from 0.00478127 to 0.00478127
Heightened Def Con from 0.00478131 +++++++++++++++++++++++to 0.00478131
Heightened Def Con from 0.00478131 ++++++++++++++to 0.00478131
Heightened Def Con from 0.00478131 +++++++++++to 0.00478131
Heightened Def Con from 0.00478131 ++++++++to 0.00478131
Heightened Def Con from 0.00478131 to 0.00478131
Heightened Def Con from 0.00478131 to 0.00478132
Heightened Def Con from 0.00478575 to 0.00478575
Heightened Def Con from 0.00478575 to 0.00478575
Heightened Def Con from 0.00478575 to 0.00478575
Heightened Def Con from 0.00478579 to 0.00478579
Heightened Def Con from 0.00478579 to 0.00478579
Heightened Def Con from 0.00478579 to 0.00478579
Heightened Def Con from 0.00478579 to 0.00478579
Heightened Def Con from 0.00478579 to 0.00478579
Heightened Def Con from 0.00479803 to 0.00479803
Heightened Def Con from 0.00479803 to 0.00479803
Heightened Def Con from 0.00480273 to 0.00480274
Heightened Def Con from 0.00480277 to 0.00480277
Heightened Def Con from 0.00480277 +to 0.00480277
Heightened Def Con from 0.00480881 to 0.00480881
Heightened Def Con from 0.00481471 +++++++++++++++++++++++++to 0.00481471
Heightened Def Con from 0.00481471 +++++++++++++++to 0.00481472
Heightened Def Con from 0.00481472 ++++++++++++to 0.00481472
Heightened Def Con from 0.00481472 +++++++++++to 0.00481472
Heightened Def Con from 0.00481472 ++++++++++to 0.00481472
Heightened Def Con from 0.00481472 +++++++++to 0.00481472
Heightened Def Con from 0.00481472 to 0.00481472
Heightened Def Con from 0.00481472 to 0.00481472
Heightened Def Con from 0.00481472 to 0.00481472
Heightened Def Con from 0.00481472 to 0.00481472
Heightened Def Con from 0.00481475 to 0.00481475
Heightened Def Con from 0.00481476 +++++++++++++++++++++++++to 0.00481476
Heightened Def Con from 0.00481476 ++++++++++++++++to 0.00481476
Heightened Def Con from 0.00481476 +++++++++++++to 0.00481476
Heightened Def Con from 0.00481476 +++++++++++++to 0.00481476
Heightened Def Con from 0.00481476 +++++++++++++to 0.00481476
Heightened Def Con from 0.00481476 +++++++++++++to 0.00481476
Heightened Def Con from 0.00481476 to 0.00481477
Heightened Def Con from 0.00481973 ++++++++++++++++++++++++++to 0.00481973
Heightened Def Con from 0.00481973 to 0.00481973
Heightened Def Con from 0.00481977 to 0.00481978
Heightened Def Con from 0.00483143 to 0.00483143
Heightened Def Con from 0.00483147 to 0.00483147
Heightened Def Con from 0.00483406 to 0.00483406
Heightened Def Con from 0.00483673 to 0.00483673
Heightened Def Con from 0.00483673 to 0.00483673
Heightened Def Con from 0.00483677 to 0.00483677
Heightened Def Con from 0.00483677 to 0.00483677
Heightened Def Con from 0.00484813 to 0.00484814
Heightened Def Con from 0.00484817 +++++++++++++++++++++++++to 0.00484818
Heightened Def Con from 0.00484818 ++++++++++++++++to 0.00484818
Heightened Def Con from 0.00484818 +++++++++++++to 0.00484818
Heightened Def Con from 0.00484818 +++++++++++++to 0.00484818
Heightened Def Con from 0.00484818 +++++++++++++to 0.00484818
Heightened Def Con from 0.00484818 to 0.00484818
Heightened Def Con from 0.00485373 to 0.00485373
Heightened Def Con from 0.00485373 to 0.00485373
Heightened Def Con from 0.00485373 to 0.00485373
Heightened Def Con from 0.00485377 to 0.00485377
Heightened Def Con from 0.00486484 to 0.00486484
Heightened Def Con from 0.00486488 to 0.00486488
Heightened Def Con from 0.00486786 to 0.00486786
Heightened Def Con from 0.00487073 to 0.00487073
Heightened Def Con from 0.00487073 +to 0.00487073
Heightened Def Con from 0.00487077 to 0.00487077
Heightened Def Con from 0.00487077 to 0.00487077
Heightened Def Con from 0.00488154 to 0.00488154
Heightened Def Con from 0.00488154 to 0.00488154
Heightened Def Con from 0.00488158 +++++++++++++++++++++++to 0.00488158
Heightened Def Con from 0.00488158 ++++++++++++++to 0.00488158
Heightened Def Con from 0.00488158 +++++++++++to 0.00488158
Heightened Def Con from 0.00488158 ++++++++to 0.00488158
Heightened Def Con from 0.00488158 to 0.00488158
Heightened Def Con from 0.00488774 to 0.00488774
Heightened Def Con from 0.00488778 ++++++++++++++++++++++++++to 0.00488778
Heightened Def Con from 0.00488778 +++++++++++++++++to 0.00488778
Heightened Def Con from 0.00488778 ++++++++++++++to 0.00488778
Heightened Def Con from 0.00488778 +++++++++++to 0.00488778
Heightened Def Con from 0.00488778 ++++++++++to 0.00488778
Heightened Def Con from 0.00488778 to 0.00488778
Heightened Def Con from 0.00489824 +++++++++++++++++++++++to 0.00489824
Heightened Def Con from 0.00489824 ++++++++++++to 0.00489824
Heightened Def Con from 0.00489824 to 0.00489824
Heightened Def Con from 0.00489828 to 0.00489828
Heightened Def Con from 0.00489828 to 0.00489828
Heightened Def Con from 0.00490475 to 0.00490475
Heightened Def Con from 0.00490475 +to 0.00490475
Heightened Def Con from 0.00490479 ++++++++++++++++++++++++++to 0.00490479
Heightened Def Con from 0.00490479 +++++++++++++++++++to 0.00490479
Heightened Def Con from 0.00490479 +++++++++++++++++to 0.00490479
Heightened Def Con from 0.00490479 ++++++++++++++to 0.00490479
Heightened Def Con from 0.00490479 ++++++++++to 0.00490479
Heightened Def Con from 0.00490479 to 0.00490479
Heightened Def Con from 0.00490479 ++to 0.00490479
Heightened Def Con from 0.00490479 to 0.00490479
Heightened Def Con from 0.00490479 ++to 0.00490479
Heightened Def Con from 0.00490479 to 0.00490479
Heightened Def Con from 0.00490479 to 0.00490479
Heightened Def Con from 0.0049048 ++++++++++++++++++++++++++to 0.0049048
Heightened Def Con from 0.0049048 +++++++++++++++++++to 0.0049048
Heightened Def Con from 0.0049048 +++++++++++++++++to 0.0049048
Heightened Def Con from 0.0049048 ++++++++++++++++to 0.0049048
Heightened Def Con from 0.0049048 ++++++++++++++++to 0.0049048
Heightened Def Con from 0.0049048 ++++++++++++++to 0.0049048
Heightened Def Con from 0.0049048 ++++++++++++to 0.0049048
Heightened Def Con from 0.0049048 +++++++++++to 0.0049048
Heightened Def Con from 0.0049048 +++++++++to 0.0049048
Heightened Def Con from 0.0049048 to 0.0049048
Heightened Def Con from 0.0049048 ++to 0.0049048
Heightened Def Con from 0.0049048 to 0.0049048
Heightened Def Con from 0.0049048 to 0.0049048
Heightened Def Con from 0.0049048 to 0.00490481
Heightened Def Con from 0.00490481 to 0.00490481
Heightened Def Con from 0.00490481 to 0.00490481
Heightened Def Con from 0.00491497 +++++++++++++++++++++++++to 0.00491498
Heightened Def Con from 0.00491498 ++++++++++++++++to 0.00491498
Heightened Def Con from 0.00491498 +++++++++++++to 0.00491498
Heightened Def Con from 0.00491498 +++++++++++++to 0.00491498
Heightened Def Con from 0.00491498 +++++++++++++to 0.00491498
Heightened Def Con from 0.00491498 +++++++++++++to 0.00491498
Heightened Def Con from 0.00491498 to 0.00491499
Heightened Def Con from 0.00492177 to 0.00492177
Heightened Def Con from 0.00492181 +to 0.00492181
Heightened Def Con from 0.00493163 +++++++++++++++++++++++++to 0.00493163
Heightened Def Con from 0.00493163 +++++++++++++++to 0.00493163
Heightened Def Con from 0.00493163 ++++++++++++to 0.00493163
Heightened Def Con from 0.00493163 +++++++++++to 0.00493163
Heightened Def Con from 0.00493163 ++++++++++to 0.00493163
Heightened Def Con from 0.00493163 +++++++++to 0.00493163
Heightened Def Con from 0.00493163 to 0.00493163
Heightened Def Con from 0.00493163 to 0.00493163
Heightened Def Con from 0.00493163 to 0.00493164
Heightened Def Con from 0.00493167 to 0.00493167
Heightened Def Con from 0.00493167 to 0.00493167
Heightened Def Con from 0.00493167 to 0.00493167
Heightened Def Con from 0.00493168 to 0.00493168
Heightened Def Con from 0.00493879 to 0.00493879
Heightened Def Con from 0.00493879 to 0.00493879
Heightened Def Con from 0.00493879 to 0.00493879
Heightened Def Con from 0.00493883 to 0.00493883
Heightened Def Con from 0.00493883 to 0.00493883
Heightened Def Con from 0.00494832 +to 0.00494832
Heightened Def Con from 0.00494836 to 0.00494836
Heightened Def Con from 0.00495207 to 0.00495207
Heightened Def Con from 0.00495207 to 0.00495207
Heightened Def Con from 0.0049558 to 0.00495581
Heightened Def Con from 0.00495584 to 0.00495584
Heightened Def Con from 0.00495584 to 0.00495584
Heightened Def Con from 0.00495584 to 0.00495584
Heightened Def Con from 0.00495584 to 0.00495585
Heightened Def Con from 0.00496501 +++++++++++++++++++++++++to 0.00496501
Heightened Def Con from 0.00496501 +++++++++++++++to 0.00496501
Heightened Def Con from 0.00496501 ++++++++++++to 0.00496501
Heightened Def Con from 0.00496501 +++++++++++to 0.00496501
Heightened Def Con from 0.00496501 ++++++++++to 0.00496501
Heightened Def Con from 0.00496501 +++++++++to 0.00496501
Heightened Def Con from 0.00496501 to 0.00496501
Heightened Def Con from 0.00496501 to 0.00496501
Heightened Def Con from 0.00496501 to 0.00496502
Heightened Def Con from 0.00496504 +++++++++++++++++++++++++to 0.00496505
Heightened Def Con from 0.00496505 ++++++++++++++++to 0.00496505
Heightened Def Con from 0.00496505 +++++++++++++to 0.00496505
Heightened Def Con from 0.00496505 +++++++++++++to 0.00496505
Heightened Def Con from 0.00496505 to 0.00496505
Heightened Def Con from 0.00497283 ++++++++++++++++++++++++++to 0.00497283
Heightened Def Con from 0.00497283 ++++++++++++++++++to 0.00497283
Heightened Def Con from 0.00497283 +++++++++++++++++to 0.00497283
Heightened Def Con from 0.00497283 +++++++++++++++++to 0.00497283
Heightened Def Con from 0.00497283 +++++++++++++++++to 0.00497283
Heightened Def Con from 0.00497283 +++++++++++++++++to 0.00497283
Heightened Def Con from 0.00497283 ++++++++++++++++to 0.00497283
Heightened Def Con from 0.00497283 +++++++to 0.00497283
Heightened Def Con from 0.00497283 to 0.00497284
Heightened Def Con from 0.00497287 to 0.00497287
Heightened Def Con from 0.0049817 +++++++++++++++++++++++to 0.0049817
Heightened Def Con from 0.0049817 ++++++++++++to 0.0049817
Heightened Def Con from 0.0049817 to 0.00498171
Heightened Def Con from 0.00498174 to 0.00498174
Heightened Def Con from 0.00498985 to 0.00498985
Heightened Def Con from 0.00498985 to 0.00498985
Heightened Def Con from 0.00498989 to 0.00498989
Heightened Def Con from 0.00499839 to 0.00499839
Heightened Def Con from 0.00499839 to 0.00499839
Heightened Def Con from 0.00499843 to 0.00499843
Heightened Def Con from 0.00499843 to 0.00499843
Heightened Def Con from 0.00499843 +++++++++++++++++++++++to 0.00499843
Heightened Def Con from 0.00499843 ++++++++++++++to 0.00499843
Heightened Def Con from 0.00499843 +++++++++++to 0.00499843
Heightened Def Con from 0.00499843 ++++++++to 0.00499843
Heightened Def Con from 0.00499843 to 0.00499843
Heightened Def Con from 0.00499843 to 0.00499843

Date: Wed Aug 11 21:56:41 2021
Total elapsed time: 132.350 seconds.

tnom = 27
temp = 27
method = modified trap
totiter = 3884701
traniter = 3884665
tranpoints = 505266
accept = 201351
rejected = 329099
matrix size = 316
fillins = 308
solver = Normal
Thread vector: 76.4/29.4[4] 9.1/6.1[4] 13.7/6.5[4] 5.2/4.0[2]  2592/500
Matrix Compiler1: 26.32 KB object code size  10.4/7.5/[3.2]
Matrix Compiler2: off  [5.7]/11.0/9.2

