Circuit: * Z:\home\niels\Desktop\Uni_Notes\Tri 2\ECEN405\Class-D_Amplifier\spice_sim\SPWM_Generator\SPWM_Generator.asc

Direct Newton iteration for .op point succeeded.

Date: Sun Aug 01 01:39:11 2021
Total elapsed time: 0.525 seconds.

tnom = 27
temp = 27
method = modified trap
totiter = 36391
traniter = 36382
tranpoints = 14004
accept = 10283
rejected = 3721
matrix size = 18
fillins = 10
solver = Normal
Matrix Compiler1: 1.13 KB object code size  1.3/0.8/[0.5]
Matrix Compiler2: 1.74 KB object code size  0.8/1.1/[0.7]

