Circuit: * C:\Users\danie\uni\2021\ECEN405\Class-D_Amplifier\spice_sim\Output_Filter\output_filter.asc

WARNING: Node N004 is floating.
WARNING: Node N008 is floating.
WARNING: Node N014 is floating.
WARNING: Node N016 is floating.


Date: Wed Aug 11 22:41:27 2021
Total elapsed time: 0.023 seconds.

tnom = 27
temp = 27
method = trap
totiter = 0
traniter = 0
tranpoints = 0
accept = 0
rejected = 0
matrix size = 20
fillins = 20
solver = Normal

