Circuit: * Z:\home\daniel\uni\2021\ECEN405\Class-D_Amplifier\spice_sim\Output_Filter\trans.asc

WARNING: Node N004 is floating.


Date: Mon Aug 09 16:13:41 2021
Total elapsed time: 0.090 seconds.

tnom = 27
temp = 27
method = trap
totiter = 0
traniter = 0
tranpoints = 0
accept = 0
rejected = 0
matrix size = 5
fillins = 5
solver = Normal

