Circuit: * Z:\home\daniel\uni\2021\ECEN405\Class-D_Amplifier\spice_sim\Power_Stage\Draft1.asc

Direct Newton iteration for .op point succeeded.
Heightened Def Con from 0.0843612 to 0.0843612

Date: Sun Aug 08 16:23:09 2021
Total elapsed time: 49.564 seconds.

tnom = 27
temp = 27
method = modified trap
totiter = 3433473
traniter = 3433457
tranpoints = 849103
accept = 619289
rejected = 229815
matrix size = 24
fillins = 0
solver = Normal
Thread vector: 13.2/7.9[2] 2.2/2.3[1] 1.9/1.8[1] 0.2/1.2[1]  2592/500
Matrix Compiler1: 1.09 KB object code size  0.4/0.3/[0.2]
Matrix Compiler2: 2.12 KB object code size  0.3/0.4/[0.3]

