Circuit: * C:\users\wolfenick\My Documents\University\ECEN 405\Class-D_Amplifier\spice_sim\Input_Stage.asc

Direct Newton iteration for .op point succeeded.

Date: Sat Jul 31 12:56:58 2021
Total elapsed time: 0.059 seconds.

tnom = 27
temp = 27
method = trap
totiter = 19
traniter = 0
tranpoints = 0
accept = 0
rejected = 0
matrix size = 18
fillins = 13
solver = Normal
Matrix Compiler1:      98 opcodes
Matrix Compiler2: 2.13 KB object code size
