Circuit: * C:\users\wolfenick\My Documents\University\ECEN_405\Class-D_Amplifier\spice_sim\Input_Stage\Input_Stage.asc

Direct Newton iteration failed to find .op point.  (Use ".option noopiter" to skip.)
Starting Gmin stepping
Gmin = 10
Gmin = 1.07374
Gmin = 0.115292
Gmin = 0.0123794
Gmin = 0.00132923
Gmin = 0.000142725
vernier = 0.5
vernier = 0.25
vernier = 0.125
Gmin = 9.54353e-05
vernier = 0.166667
vernier = 0.222222
Gmin = 6.45302e-05
vernier = 0.296296
Gmin = 3.44498e-05
vernier = 0.395061
vernier = 0.197531
vernier = 0.0987653
Gmin = 2.58544e-05
vernier = 0.131687
vernier = 0.175583
Gmin = 1.8605e-05
vernier = 0.23411
vernier = 0.117055
vernier = 0.0585276
vernier = 0.0292638
vernier = 0.0146319
vernier = 0.00731595
Gmin = 1.56676e-05
vernier = 0.00365797
vernier = 0.00182899
vernier = 0.000914493
vernier = 0.000457247
Gmin = 0
Gmin stepping failed

Starting source stepping with srcstepmethod=0
Source Step = 3.0303%
Source Step = 25.7576%
Source Step = 33.3333%
Source Step = 38.6837%
vernier = 0.00390625
Source Step = 38.663%
Source Step = 38.6926%
Source Step = 38.7222%
Source Step = 38.7518%
Source Step = 38.7814%
vernier = 0.00146484
Source Step = 38.8213%
Source Step = 38.8657%
Source Step = 38.9101%
Source Step = 38.9545%
Source Step = 38.9989%
vernier = 0.00219727
Source Step = 39.0566%
Source Step = 39.1232%
Source Step = 39.1897%
Source Step = 39.2563%
Source Step = 39.3229%
vernier = 0.0032959
Source Step = 39.4061%
Source Step = 39.506%
Source Step = 39.6059%
Source Step = 39.7058%
Source Step = 39.8056%
vernier = 0.00494385
Source Step = 39.9255%
Source Step = 40.0753%
Source Step = 40.2251%
Source Step = 40.3749%
Source Step = 40.5248%
vernier = 0.00741577
Source Step = 40.697%
Source Step = 40.9218%
Source Step = 41.1465%
Source Step = 41.3712%
Source Step = 41.5959%
vernier = 0.0111237
Source Step = 41.8431%
Source Step = 42.1802%
Source Step = 42.5173%
Source Step = 42.8544%
Source Step = 43.1914%
vernier = 0.0166855
Source Step = 43.5454%
Source Step = 44.051%
Source Step = 44.5566%
Source Step = 45.0622%
Source Step = 45.5679%
Source Step = 46.0735%
vernier = 0.0250282
Source Step = 46.8319%
Source Step = 47.5903%
Source Step = 48.3488%
Source Step = 49.1072%
Source Step = 49.8656%
vernier = 0.0375423
Source Step = 50.9654%
Source Step = 52.103%
Source Step = 53.2406%
Source Step = 54.3783%
Source Step = 55.5159%
vernier = 0.0563135
Source Step = 57.1086%
Source Step = 58.8151%
Source Step = 60.5216%
Source Step = 62.2281%
Source Step = 63.9345%
vernier = 0.0844703
Source Step = 66.2383%
Source Step = 68.798%
Source Step = 71.3577%
Source Step = 73.9174%
Source Step = 76.4771%
vernier = 0.126705
Source Step = 79.8047%
Source Step = 83.6443%
Source Step = 87.4838%
Source Step = 90.1955%
vernier = 0.00197977
Source Step = 90.2315%
Source Step = 90.2915%
Source Step = 90.3515%
Source Step = 90.4115%
Source Step = 90.4715%
Source Step = 90.5315%
Source Step = 90.5915%
Source Step = 90.6515%
Source Step = 90.7114%
Source Step = 90.7714%
Source Step = 90.8314%
Source Step = 90.8914%
Source Step = 90.9514%
Source Step = 91.0114%
Source Step = 91.0714%
vernier = 0.00296966
Source Step = 91.1434%
Source Step = 91.2334%
Source Step = 91.3234%
Source Step = 91.4134%
Source Step = 91.5034%
vernier = 0.00445449
Source Step = 91.6068%
Source Step = 91.7418%
Source Step = 91.8768%
Source Step = 92.0118%
Source Step = 92.1468%
vernier = 0.00668173
Source Step = 92.2953%
Source Step = 92.4977%
Source Step = 92.7002%
Source Step = 92.9027%
Source Step = 93.1052%
vernier = 0.0100226
Source Step = 93.3178%
Source Step = 93.6215%
Source Step = 93.9252%
Source Step = 94.2289%
Source Step = 94.5326%
Source Step = 94.8363%
vernier = 0.0150339
Source Step = 95.2919%
Source Step = 95.7475%
Source Step = 96.2031%
Source Step = 96.6586%
Source Step = 97.1142%
vernier = 0.0225508
Source Step = 97.7748%
Source Step = 98.4581%
Source Step = 99.1415%
Source Step = 99.8249%
Source stepping succeeded in finding the operating point.


Date: Wed Aug 11 20:47:23 2021
Total elapsed time: 1.980 seconds.

tnom = 27
temp = 27
method = trap
totiter = 16720
traniter = 0
tranpoints = 0
accept = 0
rejected = 0
matrix size = 246
fillins = 322
solver = Normal
Matrix Compiler1:    2180 opcodes
Matrix Compiler2: 27.32 KB object code size  2.8/3.5/[1.5]

