Circuit: * C:\users\wolfenick\My Documents\University\ECEN 405\Class-D_Amplifier\spice_sim\Input_Stage\Input_Stage.asc

Direct Newton iteration failed to find .op point.  (Use ".option noopiter" to skip.)
Starting Gmin stepping
Gmin = 10
Gmin = 1.07374
Gmin = 0.115292
Gmin = 0.0123794
Gmin = 0.00132923
Gmin = 0.000142725
vernier = 0.5
vernier = 0.25
vernier = 0.125
Gmin = 0.000101049
vernier = 0.0625
vernier = 0.03125
vernier = 0.015625
vernier = 0.0078125
Gmin = 0.000102204
vernier = 0.00390625
vernier = 0.00195313
vernier = 0.000976563
vernier = 0.000488281
Gmin = 0.000102316
Gmin = 0
Gmin stepping failed

Starting source stepping with srcstepmethod=0
Source Step = 3.0303%
Source Step = 25.7576%
Source Step = 33.3333%
Source Step = 40.9091%
Source Step = 48.4848%
Source Step = 54.7348%
vernier = 0.015625
Source Step = 54.5691%
Source Step = 54.5987%
Source Step = 54.6283%
Source Step = 54.6579%
Source Step = 54.6875%
vernier = 0.00146484
Source Step = 54.7245%
Source Step = 54.7689%
Source Step = 54.8133%
Source Step = 54.8577%
Source Step = 54.902%
vernier = 0.00219727
Source Step = 54.9553%
Source Step = 55.0219%
Source Step = 55.0885%
Source Step = 55.1551%
Source Step = 55.2217%
vernier = 0.0032959
Source Step = 55.2982%
Source Step = 55.3981%
Source Step = 55.498%
Source Step = 55.5978%
Source Step = 55.6977%
vernier = 0.00494385
Source Step = 55.8076%
Source Step = 55.9574%
Source Step = 56.1072%
Source Step = 56.257%
Source Step = 56.4068%
vernier = 0.00741577
Source Step = 56.5641%
Source Step = 56.7889%
Source Step = 57.0136%
Source Step = 57.2383%
Source Step = 57.463%
Source Step = 57.6877%
vernier = 0.0111237
Source Step = 58.0248%
Source Step = 58.3619%
Source Step = 58.699%
Source Step = 59.0361%
Source Step = 59.3732%
vernier = 0.0166855
Source Step = 59.8619%
Source Step = 60.3675%
Source Step = 60.8732%
Source Step = 61.3788%
Source Step = 61.8844%
vernier = 0.0250282
Source Step = 62.5923%
Source Step = 63.3507%
Source Step = 64.1091%
Source Step = 64.8676%
Source Step = 65.626%
vernier = 0.0375423
Source Step = 66.6499%
Source Step = 67.7875%
Source Step = 68.9252%
Source Step = 70.0628%
Source Step = 71.2005%
vernier = 0.0563135
Source Step = 72.6794%
Source Step = 74.3859%
Source Step = 76.0923%
Source Step = 77.7988%
Source Step = 79.5053%
vernier = 0.0844703
Source Step = 81.6384%
Source Step = 84.1981%
Source Step = 86.7578%
Source Step = 89.3175%
Source Step = 91.8772%
vernier = 0.126705
Source Step = 94.9488%
Source Step = 98.7884%
Source stepping succeeded in finding the operating point.


Date: Wed Aug 11 16:26:47 2021
Total elapsed time: 0.907 seconds.

tnom = 27
temp = 27
method = trap
totiter = 5023
traniter = 0
tranpoints = 0
accept = 0
rejected = 0
matrix size = 246
fillins = 275
solver = Normal
Matrix Compiler1:    1819 opcodes
Matrix Compiler2: 26.45 KB object code size  4.1/5.3/[2.1]

