Circuit: * C:\users\wolfenick\My Documents\University\ECEN 405\Class-D_Amplifier\spice_sim\Input_Stage\Input_Stage.asc

Direct Newton iteration failed to find .op point.  (Use ".option noopiter" to skip.)
Starting Gmin stepping
Gmin = 10
Gmin = 1.07374
Gmin = 0.115292
Gmin = 0.0123794
Gmin = 0.00132923
Gmin = 0.000142725
vernier = 0.5
vernier = 0.25
vernier = 0.125
Gmin = 0.000101049
vernier = 0.0625
vernier = 0.03125
vernier = 0.015625
vernier = 0.0078125
Gmin = 0.000102204
vernier = 0.00390625
vernier = 0.00195313
vernier = 0.000976563
vernier = 0.000488281
Gmin = 0.000102316
Gmin = 0
Gmin stepping failed

Starting source stepping with srcstepmethod=0
Source Step = 3.0303%
Source Step = 25.7576%
Source Step = 28.7938%
Source Step = 28.8234%
Source Step = 28.853%
Source Step = 28.8826%
Source Step = 28.9122%
Source Step = 28.9418%
vernier = 0.00146484
Source Step = 28.9862%
Source Step = 29.0305%
Source Step = 29.0749%
Source Step = 29.1193%
Source Step = 29.1637%
vernier = 0.00219727
Source Step = 29.2281%
Source Step = 29.2947%
Source Step = 29.3612%
Source Step = 29.4278%
Source Step = 29.4944%
vernier = 0.0032959
Source Step = 29.5876%
Source Step = 29.6875%
Source Step = 29.7874%
Source Step = 29.8873%
Source Step = 29.9871%
vernier = 0.00494385
Source Step = 30.122%
Source Step = 30.2718%
Source Step = 30.4216%
Source Step = 30.5714%
Source Step = 30.7212%
vernier = 0.00741577
Source Step = 30.916%
Source Step = 31.1407%
Source Step = 31.3654%
Source Step = 31.5901%
Source Step = 31.8149%
vernier = 0.0111237
Source Step = 32.0958%
Source Step = 32.4328%
Source Step = 32.7699%
Source Step = 33.107%
Source Step = 33.4441%
vernier = 0.0166855
Source Step = 33.8486%
Source Step = 34.3542%
Source Step = 34.8598%
Source Step = 35.3654%
Source Step = 35.8711%
vernier = 0.0250282
Source Step = 36.4525%
Source Step = 37.2109%
Source Step = 37.9694%
Source Step = 38.7278%
Source Step = 39.4862%
vernier = 0.0375423
Source Step = 40.3205%
Source Step = 41.4582%
Source Step = 42.5958%
Source Step = 43.7335%
Source Step = 44.8711%
vernier = 0.0563135
Source Step = 46.0656%
Source Step = 47.7721%
Source Step = 49.4786%
Source Step = 51.185%
Source Step = 52.8915%
Source Step = 54.598%
vernier = 0.0844703
Source Step = 57.1577%
Source Step = 59.7174%
Source Step = 62.2771%
Source Step = 64.8368%
Source Step = 67.3965%
vernier = 0.126705
Source Step = 71.1081%
Source Step = 74.9476%
Source Step = 78.7872%
Source Step = 82.6268%
Source Step = 86.4663%
vernier = 0.190058
Source Step = 91.8417%
Source Step = 97.601%
Source stepping succeeded in finding the operating point.


Date: Wed Aug 11 15:50:20 2021
Total elapsed time: 0.645 seconds.

tnom = 27
temp = 27
method = trap
totiter = 4905
traniter = 0
tranpoints = 0
accept = 0
rejected = 0
matrix size = 246
fillins = 305
solver = Normal
Matrix Compiler1:    1996 opcodes
Matrix Compiler2: 27.02 KB object code size  3.0/3.8/[1.5]

