Circuit: * C:\users\wolfenick\My Documents\University\ECEN 405\Class-D_Amplifier\spice_sim\Input_Stage\Input_Stage.asc

Direct Newton iteration failed to find .op point.  (Use ".option noopiter" to skip.)
Starting Gmin stepping
Gmin = 10
Gmin = 1.07374
Gmin = 0.115292
Gmin = 0.0123794
Gmin = 0.00132923
Gmin = 0.000142725
Gmin = 1.5325e-005
Gmin = 1.6455e-006
Gmin = 1.76685e-007
Gmin = 1.89714e-008
Gmin = 2.03704e-009
Gmin = 2.18725e-010
Gmin = 2.34854e-011
Gmin = 2.52173e-012
Gmin = 2.70769e-013
Gmin = 0
Gmin stepping succeeded in finding the operating point.


Date: Wed Aug 11 15:28:23 2021
Total elapsed time: 2.760 seconds.

tnom = 27
temp = 27
method = modified trap
totiter = 96914
traniter = 96282
tranpoints = 38019
accept = 24022
rejected = 13997
matrix size = 246
fillins = 196
solver = Normal
Thread vector: 18.1/9.5[8] 9.3/5.0[8] 6.2/3.6[8] 1.4/2.1[1]  2592/500
Matrix Compiler1: 28.56 KB object code size  7.4/4.1/[2.3]
Matrix Compiler2: 25.14 KB object code size  5.1/6.7/[1.7]

