Circuit: * C:\users\wolfenick\My Documents\University\ECEN 405\Class-D_Amplifier\spice_sim\Input_Stage\Input_Stage.asc

Direct Newton iteration failed to find .op point.  (Use ".option noopiter" to skip.)
Starting Gmin stepping
Gmin = 10
Gmin = 1.07374
Gmin = 0.115292
Gmin = 0.0123794
Gmin = 0.00132923
Gmin = 0.000142725
Gmin = 1.5325e-005
vernier = 0.5
vernier = 0.25
vernier = 0.125
Gmin = 6.76321e-006
vernier = 0.0625
vernier = 0.03125
vernier = 0.015625
vernier = 0.0078125
Gmin = 6.6977e-006
vernier = 0.00390625
vernier = 0.00195313
vernier = 0.000976563
vernier = 0.000488281
Gmin = 0
Gmin stepping failed

Starting source stepping with srcstepmethod=0
Source Step = 3.0303%
Source Step = 12.1212%
Source Step = 19.697%
Source Step = 27.2727%
Source Step = 34.8485%
Source Step = 42.4242%
vernier = 0.375
Source Step = 52.6515%
Source Step = 64.0152%
Source Step = 75.3788%
Source Step = 86.7424%
Source Step = 98.1061%
Source stepping succeeded in finding the operating point.


Date: Mon Aug 02 13:58:14 2021
Total elapsed time: 0.614 seconds.

tnom = 27
temp = 27
method = trap
totiter = 3040
traniter = 0
tranpoints = 0
accept = 0
rejected = 0
matrix size = 245
fillins = 305
solver = Normal
Matrix Compiler1:    1911 opcodes
Matrix Compiler2: 28.37 KB object code size  4.8/6.2/[2.7]

